file 101786547 1620631442                                       
version 2
run BonnMotionMobility2-0-20210510-16:23:35-16224
attr configname BonnMotionMobility2
attr datetime 20210510-16:23:35
attr experiment BonnMotionMobility2
attr inifile omnetpp.ini
attr iterationvars ""
attr iterationvarsf ""
attr measurement ""
attr network MobileNetwork
attr processid 16224
attr repetition 0
attr replication #0
attr resultdir results
attr runnumber 0
attr seedset 0
param *.numHosts 100
param **.host*.mobility.typename "\"BonnMotionMobility\""
param **.host*.mobility.traceFile "\"bonnmotion_scenario.movements\""
param **.host*.mobility.nodeId -1
param *.numHosts 2
param **.constraintAreaMinX 0m
param **.constraintAreaMinY 0m
param **.constraintAreaMinZ 0m
param **.constraintAreaMaxX 600m
param **.constraintAreaMaxY 400m
param **.constraintAreaMaxZ 0m
param **.updateInterval 0.1s
param **.mobility.initFromDisplayString false

vector 0 MobileNetwork.host[0] coordX:vector ETV
attr interpolationmode linear
attr source xCoord(mobilityPos(mobilityStateChanged))
attr title "coord X, vector"
0	50223 67934 0 173803 0 173.67069818722 1748 44.981857596201 97.091751939258 127356.61483026 9851929.8584192
0	17514216 73026 173817 347435 173.690834279994 347.177341097415 1747 44.981857596201 105.9734428468 126817.33419489 9836129.8145492
0	37740598 73284 347491 521129 347.231857669411 520.757601967348 1748 105.99460804189 130.22745292461 203495.54821586 23772929.316667
0	58059990 73228 521164 694801 520.785360583747 694.291971157509 1748 130.23245707046 178.60335070304 260640.97892947 39187587.204058
0	78381383 73669 694838 869427 694.328374965594 869.567564379529 1756 163.22897112735 183.41598931323 307552.11370505 53963599.296858
0	98706617 12796 869520 895882 869.667564379529 864000 306 142.4131531547 163.16057102217 46735.404652968 7149069.7811796
vector 1 MobileNetwork.host[0] coordY:vector ETV
attr interpolationmode linear
attr source yCoord(mobilityPos(mobilityStateChanged))
attr title "coord Y, vector"
1	118157 67932 0 173803 0 173.67069818722 1748 42.966808181281 121.87006869464 139245.8876643 12405887.025695
1	17587242 73039 173817 347435 173.690834279994 347.177341097415 1747 24.17893171535 121.87006869464 135649.84228331 12149797.926641
1	37813882 73282 347491 521129 347.231857669411 520.757601967348 1748 17.728326387366 78.828657800232 65839.588925663 3192911.6392463
1	58133218 73216 521164 694801 520.785360583747 694.291971157509 1748 78.843774205415 175.39499821184 219137.9646259 28751802.319642
1	78455052 73668 694838 869427 694.328374965594 869.567564379529 1756 95.915827396327 182.47081222068 250595.43176687 38128451.7259
1	98719413 12794 869520 895882 869.667564379529 864000 306 90.950368166581 95.899511057761 28583.886808892 2670696.2043684
vector 2 MobileNetwork.host[0] coordZ:vector ETV
attr interpolationmode linear
attr source zCoord(mobilityPos(mobilityStateChanged))
attr title "coord Z, vector"
2	186089 43607 0 173803 0 173.67069818722 1748 0 0 0 0
2	17660281 48751 173817 347435 173.690834279994 347.177341097415 1747 0 0 0 0
2	37887164 48944 347491 521129 347.231857669411 520.757601967348 1748 0 0 0 0
2	58206434 48942 521164 694801 520.785360583747 694.291971157509 1748 0 0 0 0
2	78528720 49168 694838 869427 694.328374965594 869.567564379529 1756 0 0 0 0
2	98732207 8545 869520 895882 869.667564379529 864000 306 0 0 0 0
vector 3 MobileNetwork.host[1] coordX:vector ETV
attr interpolationmode linear
attr source xCoord(mobilityPos(mobilityStateChanged))
attr title "coord X, vector"
3	229696 61349 0 173770 0 173.631037322057 1747 20.722342613231 127.756618605 86127.595687809 6162870.1142746
3	17709032 73275 173817 347490 173.690834279994 347.231335502661 1748 37.09033407234 55.679208574501 89924.938271407 4667335.3133682
3	37936108 73270 347491 521155 347.231857669411 520.779726712943 1748 47.287153997888 141.517232896 143258.19990572 13446436.175178
3	58255376 73243 521164 694769 520.785360583747 694.261237831145 1747 103.75175929727 164.18716755415 257519.3995017 38561643.266862
3	78577888 73314 694838 869474 694.328374965594 869.61813218026 1755 39.211665655333 103.70391189008 101168.83150908 6543396.6773661
3	98740752 851 869567 895882 869.71813218026 864000 21 62.670276660459 64.336092649673 1334.5448851759 84815.835939357
vector 4 MobileNetwork.host[1] coordY:vector ETV
attr interpolationmode linear
attr source yCoord(mobilityPos(mobilityStateChanged))
attr title "coord Y, vector"
4	291045 61339 0 173770 0 173.631037322057 1747 22.234141175581 61.805928052009 64645.717767132 2687015.9428153
4	17782307 73284 173817 347490 173.690834279994 347.231335502661 1748 60.916124252919 185.42970719021 199909.09999926 24534047.543982
4	38009378 73264 347491 521155 347.231857669411 520.779726712943 1748 66.750162664137 193.56102611193 256541.88752846 40718121.437052
4	58328619 72661 521164 694769 520.785360583747 694.261237831145 1747 36.24192132633 94.515630871495 92918.729089158 5503854.7842151
4	78651202 73318 694838 869474 694.328374965594 869.61813218026 1755 94.561766836974 186.2579612865 250792.14457868 36750194.439416
4	98741603 852 869567 895882 869.71813218026 864000 21 186.36974444912 188.47326616167 3937.0865976635 738135.53415947
vector 5 MobileNetwork.host[1] coordZ:vector ETV
attr interpolationmode linear
attr source zCoord(mobilityPos(mobilityStateChanged))
attr title "coord Z, vector"
5	352384 37041 0 173770 0 173.631037322057 1747 0 0 0 0
5	17855591 48943 173817 347490 173.690834279994 347.231335502661 1748 0 0 0 0
5	38082642 48944 347491 521155 347.231857669411 520.779726712943 1748 0 0 0 0
5	58401280 48914 521164 694769 520.785360583747 694.261237831145 1747 0 0 0 0
5	78724520 48875 694838 869474 694.328374965594 869.61813218026 1755 0 0 0 0
5	98742455 559 869567 895882 869.71813218026 864000 21 0 0 0 0
vector 6 MobileNetwork.host[2] coordX:vector ETV
attr interpolationmode linear
attr source xCoord(mobilityPos(mobilityStateChanged))
attr title "coord X, vector"
6	389425 63325 0 173730 0 173.599444149406 1747 44.371513947658 134.04684379967 120758.66181613 9533504.9029995
6	17904534 73311 173817 347428 173.690834279994 347.167671402545 1749 71.550162260039 112.52656387628 157336.32637694 14591712.997256
6	38131586 73223 347491 521091 347.231857669411 520.710840658741 1747 83.575712497758 114.82006210628 176573.35693351 18016986.036509
6	58450194 73262 521164 694767 520.785360583747 694.259426671553 1748 65.497638257345 114.82006210628 152885.24959533 13803431.318806
6	78773395 67421 694838 855510 694.328374965594 854.934124494368 1609 81.354636838791 154.52659324056 217517.80995587 30260405.213136
6	98743014 32 895882 895882 864000 864000 1 154.52659324056 154.52659324056 154.52659324056 23878.468018533
vector 7 MobileNetwork.host[2] coordY:vector ETV
attr interpolationmode linear
attr source yCoord(mobilityPos(mobilityStateChanged))
attr title "coord Y, vector"
7	452750 63337 0 173730 0 173.599444149406 1747 139.20931644006 179.51715069318 295877.85197082 50343896.250259
7	17977845 73323 173817 347428 173.690834279994 347.167671402545 1749 150.88481619113 178.49411742487 289530.360704 48041016.887897
7	38204809 73207 347491 521091 347.231857669411 520.710840658741 1747 79.042700835243 150.85462644706 193288.87401241 22285231.327903
7	58523456 73251 521164 694767 520.785360583747 694.259426671553 1748 79.042700835243 195.02419968159 254002.04398232 39510661.008194
7	78840816 67421 694838 855510 694.328374965594 854.934124494368 1609 82.193606543685 190.13570357377 251629.3930137 40846141.048125
7	98743046 32 895882 895882 864000 864000 1 82.193606543685 82.193606543685 82.193606543685 6755.7889566581
vector 8 MobileNetwork.host[2] coordZ:vector ETV
attr interpolationmode linear
attr source zCoord(mobilityPos(mobilityStateChanged))
attr title "coord Z, vector"
8	516087 39000 0 173730 0 173.599444149406 1747 0 0 0 0
8	18051168 48971 173817 347428 173.690834279994 347.167671402545 1749 0 0 0 0
8	38278016 48916 347491 521091 347.231857669411 520.710840658741 1747 0 0 0 0
8	58596707 48942 521164 694767 520.785360583747 694.259426671553 1748 0 0 0 0
8	78908237 45052 694838 855510 694.328374965594 854.934124494368 1609 0 0 0 0
8	98743078 18 895882 895882 864000 864000 1 0 0 0 0
vector 9 MobileNetwork.host[3] coordX:vector ETV
attr interpolationmode linear
attr source xCoord(mobilityPos(mobilityStateChanged))
attr title "coord X, vector"
9	555087 64492 0 173762 0 173.622460047253 1748 49.19640776703 91.48189627189 120246.6295586 8460426.6904212
9	18100139 73277 173817 347414 173.690834279994 347.152822846093 1748 91.506706920219 193.56319817256 227168.78388789 31105916.637052
9	38326932 72122 347491 521085 347.231857669411 520.707654124635 1748 72.603338853204 193.56319817256 250680.80273551 39306495.531397
9	58645649 73283 521164 694760 520.785360583747 694.257116822388 1748 52.227850567152 72.603338853204 117362.82639746 7927379.9255607
9	78953289 73564 694838 869426 694.328374965594 869.567050488185 1755 7.8476193846647 52.199955175917 40428.02625196 1286305.517111
9	98743096 9960 869519 895882 869.667050488185 864000 238 22.689153600698 40.198801123947 7492.8165710657 242077.02290795
vector 10 MobileNetwork.host[3] coordY:vector ETV
attr interpolationmode linear
attr source yCoord(mobilityPos(mobilityStateChanged))
attr title "coord Y, vector"
10	619579 66271 0 173762 0 173.622460047253 1748 29.903180755938 97.812324644658 91445.52070249 5596378.3212597
10	18173416 75002 173817 347414 173.690834279994 347.152822846093 1748 37.764092105951 115.66578060694 114188.33821621 8390671.1890601
10	38399054 73874 347491 521085 347.231857669411 520.707654124635 1748 27.772257347268 115.66578060694 138481.49325454 12743033.255366
10	58718932 75012 521164 694760 520.785360583747 694.257116822388 1748 27.772257347268 154.65216553077 157530.56482382 18183732.00786
10	79026853 75315 694838 869426 694.328374965594 869.567050488185 1755 70.014425332889 137.27485742839 162452.3507223 15871940.12947
10	98753056 10200 869519 895882 869.667050488185 864000 238 84.018825138267 100.54084373807 21971.234453123 2033805.8763352
vector 11 MobileNetwork.host[3] coordZ:vector ETV
attr interpolationmode linear
attr source zCoord(mobilityPos(mobilityStateChanged))
attr title "coord Z, vector"
11	685850 41935 0 173762 0 173.622460047253 1748 0 0 0 0
11	18248418 50691 173817 347414 173.690834279994 347.152822846093 1748 0 0 0 0
11	38472928 49529 347491 521085 347.231857669411 520.707654124635 1748 0 0 0 0
11	58793944 50690 521164 694760 520.785360583747 694.257116822388 1748 0 0 0 0
11	79102168 50895 694838 869426 694.328374965594 869.567050488185 1755 0 0 0 0
11	98763256 6892 869519 895882 869.667050488185 864000 238 0 0 0 0
vector 12 MobileNetwork.host[4] coordX:vector ETV
attr interpolationmode linear
attr source xCoord(mobilityPos(mobilityStateChanged))
attr title "coord X, vector"
12	727785 71865 0 173743 0 173.604269780822 1748 20.805047105574 161.47603155266 154272.40590454 17236572.774252
12	18299109 75002 173817 347487 173.690834279994 347.229204984536 1748 20.805047105574 94.931788813018 89732.002854223 5615360.6009803
12	38522457 74989 347491 521112 347.231857669411 520.739960680064 1747 94.933163882155 112.32102301053 178087.92607001 18204562.573707
12	58844634 74980 521164 694816 520.785360583747 694.305389234708 1748 102.87071288726 165.43574862469 250450.26705321 36625034.919831
12	79153063 71118 694838 862301 694.328374965594 861.947304043479 1679 100.93958557995 165.43574862469 219518.78925511 29368218.700776
12	98770148 33 895882 895882 864000 864000 1 100.93958557995 100.93958557995 100.93958557995 10188.799937052
vector 13 MobileNetwork.host[4] coordY:vector ETV
attr interpolationmode linear
attr source yCoord(mobilityPos(mobilityStateChanged))
attr title "coord Y, vector"
13	799650 71712 0 173743 0 173.604269780822 1748 24.18465255013 130.16549120174 131103.96714006 11888405.056463
13	18374111 74697 173817 347487 173.690834279994 347.229204984536 1748 24.18465255013 129.17344716844 117857.53607267 9970629.092591
13	38597446 74935 347491 521112 347.231857669411 520.739960680064 1747 66.321775674254 153.8025445182 179196.88588961 20304089.605379
13	58919614 74979 521164 694816 520.785360583747 694.305389234708 1748 78.574095803032 194.1321455516 250411.56041115 37586078.353051
13	79224181 71604 694838 862301 694.328374965594 861.947304043479 1679 111.63101091461 135.35328247221 221282.22589057 29220030.070071
13	98770181 33 895882 895882 864000 864000 1 111.63101091461 111.63101091461 111.63101091461 12461.482597818
vector 14 MobileNetwork.host[4] coordZ:vector ETV
attr interpolationmode linear
attr source zCoord(mobilityPos(mobilityStateChanged))
attr title "coord Z, vector"
14	871362 47554 0 173743 0 173.604269780822 1748 0 0 0 0
14	18448808 50691 173817 347487 173.690834279994 347.229204984536 1748 0 0 0 0
14	38672381 50663 347491 521112 347.231857669411 520.739960680064 1747 0 0 0 0
14	58994593 50690 521164 694816 520.785360583747 694.305389234708 1748 0 0 0 0
14	79295785 48205 694838 862301 694.328374965594 861.947304043479 1679 0 0 0 0
14	98770214 19 895882 895882 864000 864000 1 0 0 0 0
vector 15 MobileNetwork.host[5] coordX:vector ETV
attr interpolationmode linear
attr source xCoord(mobilityPos(mobilityStateChanged))
attr title "coord X, vector"
15	918916 54023 0 173788 0 173.652412589517 1746 139.18365341082 143.43577485313 246886.88217182 34913003.953273
15	18499499 74898 173817 347411 173.690834279994 347.150979100671 1746 53.632607145721 143.43577485313 179012.83655365 19709599.000009
15	38723044 75029 347491 521128 347.231857669411 520.756799453276 1748 26.884195290372 53.586637831338 63951.881256701 2396606.2555756
15	59045283 74933 521164 694795 520.785360583747 694.288787194591 1747 19.591432146546 67.194179401523 62788.836108243 2638082.295264
15	79343990 75229 694838 869451 694.328374965594 869.588787194591 1754 67.211295538284 142.98674610268 184328.68878332 20211802.010774
15	98770233 13097 869544 895882 869.688787194591 864000 306 143.02998202208 156.13531355856 45784.65866553 6854902.9247525
vector 16 MobileNetwork.host[5] coordY:vector ETV
attr interpolationmode linear
attr source yCoord(mobilityPos(mobilityStateChanged))
attr title "coord Y, vector"
16	972939 54027 0 173788 0 173.652412589517 1746 21.369744110597 169.16407528518 160770.56239142 18244126.466665
16	18574397 74901 173817 347411 173.690834279994 347.150979100671 1746 21.369744110597 150.08144162542 139683.9653236 13960344.603644
16	38798073 75029 347491 521128 347.231857669411 520.756799453276 1748 72.50345421796 171.36483220723 248612.9606507 37089028.673449
16	59120216 74929 521164 694795 520.785360583747 694.288787194591 1747 11.911523142247 72.474254706944 71987.853489791 3516094.0927258
16	79419219 75229 694838 869451 694.328374965594 869.588787194591 1754 71.662003453307 166.74038555121 209060.08193802 26241404.139514
16	98783330 13099 869544 895882 869.688787194591 864000 306 166.79463532781 183.2384005587 53570.573651741 9385476.7581234
vector 17 MobileNetwork.host[5] coordZ:vector ETV
attr interpolationmode linear
attr source zCoord(mobilityPos(mobilityStateChanged))
attr title "coord Z, vector"
17	1026966 29767 0 173788 0 173.652412589517 1746 0 0 0 0
17	18649298 50633 173817 347411 173.690834279994 347.150979100671 1746 0 0 0 0
17	38873102 50692 347491 521128 347.231857669411 520.756799453276 1748 0 0 0 0
17	59195145 50661 521164 694795 520.785360583747 694.288787194591 1747 0 0 0 0
17	79494448 50866 694838 869451 694.328374965594 869.588787194591 1754 0 0 0 0
17	98796429 8851 869544 895882 869.688787194591 864000 306 0 0 0 0
vector 18 MobileNetwork.host[6] coordX:vector ETV
attr interpolationmode linear
attr source xCoord(mobilityPos(mobilityStateChanged))
attr title "coord X, vector"
18	1056733 67525 0 173806 0 173.67659135546 1749 24.70950773038 170.18012245477 188249.68903742 23721391.427658
18	18699931 75015 173817 347488 173.690834279994 347.230013701155 1748 23.984766250263 39.000695693093 60052.432191427 2107631.5847264
18	38923794 74931 347491 521099 347.231857669411 520.720096984895 1747 39.000696173998 96.936186530749 105969.44593174 7070216.2463402
18	59245806 75039 521164 694807 520.785360583747 694.300296902511 1749 93.039326094252 122.35232389583 197293.58574053 22380249.236651
18	79545314 75404 694838 869488 694.328374965594 869.634073531033 1756 67.172578837525 120.71246041709 147519.26650161 12695840.252251
18	98805280 13062 869581 895882 869.734073531033 864000 305 120.8121237262 150.97614758029 41467.921166259 5661474.6402894
vector 19 MobileNetwork.host[6] coordY:vector ETV
attr interpolationmode linear
attr source yCoord(mobilityPos(mobilityStateChanged))
attr title "coord Y, vector"
19	1124258 67652 0 173806 0 173.67659135546 1749 123.81863624126 194.54414217045 266940.1348978 41525347.277267
19	18774946 75020 173817 347488 173.690834279994 347.230013701155 1748 66.029071355786 194.94573355997 216525.53077066 29069970.714488
19	38998725 74932 347491 521099 347.231857669411 520.720096984895 1747 13.250762862195 160.96688360751 130787.01116139 13053947.64306
19	59320845 75021 521164 694807 520.785360583747 694.300296902511 1749 53.939768832327 170.48356409636 204180.68177775 25800619.398578
19	79620718 75399 694838 869488 694.328374965594 869.634073531033 1756 5.4354096477995 53.914531310061 31064.070725733 837100.76532105
19	98818342 13062 869581 895882 869.734073531033 864000 305 17.017922066808 27.513594797336 6798.0883863372 154364.04171963
vector 20 MobileNetwork.host[6] coordZ:vector ETV
attr interpolationmode linear
attr source zCoord(mobilityPos(mobilityStateChanged))
attr title "coord Z, vector"
20	1191910 43343 0 173806 0 173.67659135546 1749 0 0 0 0
20	18849966 50684 173817 347488 173.690834279994 347.230013701155 1748 0 0 0 0
20	39073657 50663 347491 521099 347.231857669411 520.720096984895 1747 0 0 0 0
20	59395866 50719 521164 694807 520.785360583747 694.300296902511 1749 0 0 0 0
20	79696117 50924 694838 869488 694.328374965594 869.634073531033 1756 0 0 0 0
20	98831404 8822 869581 895882 869.734073531033 864000 305 0 0 0 0
vector 21 MobileNetwork.host[7] coordX:vector ETV
attr interpolationmode linear
attr source xCoord(mobilityPos(mobilityStateChanged))
attr title "coord X, vector"
21	1235253 66239 0 173816 0 173.68957474593 1749 63.209017791177 92.192057703207 153516.65110025 13586843.459417
21	18900650 74377 173817 347458 173.690834279994 347.206960225611 1748 36.307034471938 91.717563995903 122108.71842076 9367908.0305625
21	39124320 75019 347491 521093 347.231857669411 520.714721150793 1748 14.134672104723 66.698562437615 64525.073046623 2729318.3183635
21	59446585 74637 521164 694798 520.785360583747 694.290184603308 1748 66.731133344694 133.98792224375 176207.91521435 18996564.327606
21	79747041 75348 694838 869497 694.328374965594 869.649662411748 1756 89.006699306322 184.61874720447 262419.48692587 40521436.505233
21	98840226 13057 869590 895882 869.749662411748 864000 305 57.60131044038 88.903223064008 22318.530694682 1658479.4148576
vector 22 MobileNetwork.host[7] coordY:vector ETV
attr interpolationmode linear
attr source yCoord(mobilityPos(mobilityStateChanged))
attr title "coord Y, vector"
22	1301492 66244 0 173816 0 173.68957474593 1749 143.70857111506 198.99006456901 320012.55753351 59004299.442185
22	18975027 74374 173817 347458 173.690834279994 347.206960225611 1748 102.98898615743 143.7076439656 210291.80563854 25498025.291234
22	39199339 75015 347491 521093 347.231857669411 520.714721150793 1748 59.406321269676 134.77954683074 190538.06659569 21789265.855948
22	59521222 74206 521164 694798 520.785360583747 694.290184603308 1748 39.327732945831 59.359616691487 82380.286994485 3952129.7575511
22	79822389 75339 694838 869497 694.328374965594 869.649662411748 1756 28.224751550565 39.327732945831 58631.334848785 1974830.8910194
22	98853283 13065 869590 895882 869.749662411748 864000 305 26.413942402143 28.218785194694 8330.1411186524 227596.44217397
vector 23 MobileNetwork.host[7] coordZ:vector ETV
attr interpolationmode linear
attr source zCoord(mobilityPos(mobilityStateChanged))
attr title "coord Z, vector"
23	1367736 41898 0 173816 0 173.68957474593 1749 0 0 0 0
23	19049401 50057 173817 347458 173.690834279994 347.206960225611 1748 0 0 0 0
23	39274354 50692 347491 521093 347.231857669411 520.714721150793 1748 0 0 0 0
23	59595428 50264 521164 694798 520.785360583747 694.290184603308 1748 0 0 0 0
23	79897728 50924 694838 869497 694.328374965594 869.649662411748 1756 0 0 0 0
23	98866348 8822 869590 895882 869.749662411748 864000 305 0 0 0 0
vector 24 MobileNetwork.host[8] coordX:vector ETV
attr interpolationmode linear
attr source xCoord(mobilityPos(mobilityStateChanged))
attr title "coord X, vector"
24	1409634 70494 0 173802 0 173.669774546946 1748 50.189818663922 170.95133993323 195332.77290385 24500907.529633
24	19099458 74940 173817 347398 173.690834279994 347.139604184942 1746 11.887431468512 117.21569510473 68442.490042423 4481255.5757717
24	39325046 75092 347491 521103 347.231857669411 520.728444754985 1750 31.271709233689 82.547337732189 113166.86540162 7807571.8779299
24	59645692 74947 521164 694838 520.785360583747 694.328374965594 1747 13.959418341325 72.161706136872 58368.539947402 2595025.5146929
24	79948652 75252 694938 869494 694.428374965594 869.645248458764 1754 15.557775324284 101.06671340883 66897.860362809 3843831.1411574
24	98875170 12600 869587 895882 869.745248458764 864000 294 101.16228627954 129.06525760458 33858.027094021 3918544.2217303
vector 25 MobileNetwork.host[8] coordY:vector ETV
attr interpolationmode linear
attr source yCoord(mobilityPos(mobilityStateChanged))
attr title "coord Y, vector"
25	1480128 70510 0 173802 0 173.669774546946 1748 32.374031937655 112.63404500726 113895.64076332 8441085.2735336
25	19174398 74940 173817 347398 173.690834279994 347.139604184942 1746 112.6482076429 167.64394273653 267116.60862034 41346602.279018
25	39400138 75099 347491 521103 347.231857669411 520.728444754985 1750 119.51006277028 154.43927620754 230621.53447562 30617190.077064
25	59720639 74944 521164 694838 520.785360583747 694.328374965594 1747 73.082395545587 126.4115301021 168920.73942466 16794609.896946
25	80023904 75257 694938 869494 694.428374965594 869.645248458764 1754 121.95155672154 194.12419303034 302773.62112863 52891890.610043
25	98887770 12598 869587 895882 869.745248458764 864000 294 147.97842892646 159.5631285382 45202.556423139 6953235.4393171
vector 26 MobileNetwork.host[8] coordZ:vector ETV
attr interpolationmode linear
attr source zCoord(mobilityPos(mobilityStateChanged))
attr title "coord Z, vector"
26	1550638 46202 0 173802 0 173.669774546946 1748 0 0 0 0
26	19249338 50633 173817 347398 173.690834279994 347.139604184942 1746 0 0 0 0
26	39475237 50750 347491 521103 347.231857669411 520.728444754985 1750 0 0 0 0
26	59795583 50632 521164 694738 520.785360583747 694.228374965594 1746 0 0 0 0
26	80099161 50895 694838 869494 694.328374965594 869.645248458764 1755 0 0 0 0
26	98900368 8516 869587 895882 869.745248458764 864000 294 0 0 0 0
vector 27 MobileNetwork.host[9] coordX:vector ETV
attr interpolationmode linear
attr source xCoord(mobilityPos(mobilityStateChanged))
attr title "coord X, vector"
27	1596840 56549 0 173794 0 173.658889280995 1747 38.332471720062 138.3391521452 139792.26392357 12983940.850196
27	19299971 74882 173817 347420 173.690834279994 347.158889280995 1746 44.279926619934 122.84356923081 145911.38417942 13092662.598291
27	39525987 75043 347491 521119 347.231857669411 520.745069068831 1749 122.87661659731 149.39666089387 241051.610785 33351102.212532
27	59846215 74077 521164 694830 520.785360583747 694.32384980838 1748 85.244352830233 158.29606164414 236041.40506319 32581193.834557
27	80150056 74973 694838 869441 694.328374965594 869.580593788916 1757 32.631147690724 94.775844926207 111185.39860877 7903008.0536731
27	98908884 13103 869534 895882 869.680593788916 864000 306 94.786305635559 97.957930596589 29492.731204324 2842814.1113317
vector 28 MobileNetwork.host[9] coordY:vector ETV
attr interpolationmode linear
attr source yCoord(mobilityPos(mobilityStateChanged))
attr title "coord Y, vector"
28	1653389 56555 0 173794 0 173.658889280995 1747 79.67738078035 116.70539150331 169607.98401329 16676361.794725
28	19374853 74883 173817 347420 173.690834279994 347.158889280995 1746 29.910469139043 79.668217645234 95654.230980918 5601007.0576638
28	39601030 75043 347491 521119 347.231857669411 520.745069068831 1749 13.093249199568 50.299878476198 45543.047955852 1403894.8063219
28	59920292 74083 521164 694830 520.785360583747 694.32384980838 1748 50.299878476198 80.856666553072 125097.36918801 9236304.3165785
28	80225029 74985 694838 869441 694.328374965594 869.580593788916 1757 80.856679441534 123.28873144275 170351.63998382 16990137.323888
28	98921987 13100 869534 895882 869.680593788916 864000 306 67.1515131781 104.46122993002 26223.069803053 2283364.2935323
vector 29 MobileNetwork.host[9] coordZ:vector ETV
attr interpolationmode linear
attr source zCoord(mobilityPos(mobilityStateChanged))
attr title "coord Z, vector"
29	1709944 32271 0 173794 0 173.658889280995 1747 0 0 0 0
29	19449736 50633 173817 347420 173.690834279994 347.158889280995 1746 0 0 0 0
29	39676073 50721 347491 521119 347.231857669411 520.745069068831 1749 0 0 0 0
29	59994375 49716 521164 694830 520.785360583747 694.32384980838 1748 0 0 0 0
29	80300014 50518 694838 869441 694.328374965594 869.580593788916 1757 0 0 0 0
29	98935087 8851 869534 895882 869.680593788916 864000 306 0 0 0 0
vector 30 MobileNetwork.host[10] coordX:vector ETV
attr interpolationmode linear
attr source xCoord(mobilityPos(mobilityStateChanged))
attr title "coord X, vector"
30	1742215 68522 0 173765 0 173.623046010477 1748 156.94842481918 185.65958244585 305955.3580087 53687103.820516
30	19500369 75026 173817 347476 173.690834279994 347.221170693722 1748 140.39748455497 169.51975449353 259891.81153872 38760280.85305
30	39726794 74062 347491 521101 347.231857669411 520.72272816327 1747 151.64687348994 196.12871120699 314798.83319754 57012657.532287
30	60044091 73188 521164 694827 520.785360583747 694.32272816327 1747 64.784702199939 151.61553484918 189032.63934822 21553288.173001
30	80350532 74343 694838 869424 694.328374965594 869.566269929235 1755 16.593338969331 64.781876776491 59410.803682295 2357394.9770483
30	98943938 13103 869517 895882 869.666269929235 864000 306 42.589455427295 57.085028580311 15262.241601889 766679.73346768
vector 31 MobileNetwork.host[10] coordY:vector ETV
attr interpolationmode linear
attr source yCoord(mobilityPos(mobilityStateChanged))
attr title "coord Y, vector"
31	1810737 68529 0 173765 0 173.623046010477 1748 97.514561642578 165.6535711593 220124.40361621 28394746.780067
31	19575395 75022 173817 347476 173.690834279994 347.221170693722 1748 128.37040128339 197.06524932799 312610.71779309 56551892.452486
31	39800856 74084 347491 521101 347.231857669411 520.72272816327 1747 64.150077912602 128.35907195976 132655.23791673 10669572.185542
31	60117279 73191 521164 694827 520.785360583747 694.32272816327 1747 61.310799377572 64.149053541132 109589.41139001 6875724.5495442
31	80424875 74332 694838 869424 694.328374965594 869.566269929235 1755 59.735560108712 96.404707509128 115569.28964164 7789608.7890106
31	98957041 13102 869517 895882 869.666269929235 864000 306 96.472238167324 116.95680573951 32671.666008219 3499244.2866492
vector 32 MobileNetwork.host[10] coordZ:vector ETV
attr interpolationmode linear
attr source zCoord(mobilityPos(mobilityStateChanged))
attr title "coord Z, vector"
32	1879266 44213 0 173765 0 173.623046010477 1748 0 0 0 0
32	19650417 50691 173817 347476 173.690834279994 347.221170693722 1748 0 0 0 0
32	39874940 49773 347491 521101 347.231857669411 520.72272816327 1747 0 0 0 0
32	60190470 48925 521164 694827 520.785360583747 694.32272816327 1747 0 0 0 0
32	80499207 49932 694838 869424 694.328374965594 869.566269929235 1755 0 0 0 0
32	98970143 8851 869517 895882 869.666269929235 864000 306 0 0 0 0
vector 33 MobileNetwork.host[11] coordX:vector ETV
attr interpolationmode linear
attr source xCoord(mobilityPos(mobilityStateChanged))
attr title "coord X, vector"
33	1923479 71732 0 173771 0 173.631734546464 1751 35.337984154784 57.207339714553 85392.085320759 4267030.1876858
33	19701108 74551 173817 347442 173.690834279994 347.185118916289 1748 27.898519522925 52.99386812773 62352.794682579 2312437.5851533
33	39924713 74895 347491 521109 347.231857669411 520.736908470358 1747 53.018153479434 142.60048072787 169623.1953781 17622381.01313
33	60239395 74993 521164 694789 520.785360583747 694.283680920027 1748 109.44406242894 162.16135606125 244551.80052286 34709449.570588
33	80549139 75321 694838 869502 694.328374965594 869.657873188349 1756 132.90254004533 196.93060818546 298020.66343447 51164578.466431
33	98978994 9982 869595 895882 869.757873188349 864000 233 120.79757834229 132.85014391756 29538.075267318 3747518.1385259
vector 34 MobileNetwork.host[11] coordY:vector ETV
attr interpolationmode linear
attr source yCoord(mobilityPos(mobilityStateChanged))
attr title "coord Y, vector"
34	1995211 71760 0 173771 0 173.631734546464 1751 58.466058507164 131.02477903944 158054.40526285 14918612.246227
34	19775659 75073 173817 347442 173.690834279994 347.185118916289 1748 101.17425045292 146.77861511389 232229.92245873 31129728.221906
34	39999608 74931 347491 521109 347.231857669411 520.736908470358 1747 44.859612031757 108.18290716098 130171.71142846 10274829.226337
34	60314388 74920 521164 694789 520.785360583747 694.283680920027 1748 102.28984976801 159.9102192388 233442.27853221 31611493.015312
34	80624460 75277 694838 869409 694.328374965594 869.557873188349 1755 59.651156705938 102.28861936294 140636.44219697 11555958.009946
34	98988976 10026 869502 895882 869.657873188349 864000 234 102.32353947978 110.39105696482 24895.562723981 2649972.2934061
vector 35 MobileNetwork.host[11] coordZ:vector ETV
attr interpolationmode linear
attr source zCoord(mobilityPos(mobilityStateChanged))
attr title "coord Z, vector"
35	2066971 47384 0 173771 0 173.631734546464 1751 0 0 0 0
35	19850732 50691 173817 347442 173.690834279994 347.185118916289 1748 0 0 0 0
35	40074539 50663 347491 521109 347.231857669411 520.736908470358 1747 0 0 0 0
35	60389308 50690 521164 694789 520.785360583747 694.283680920027 1748 0 0 0 0
35	80699737 50895 694838 869409 694.328374965594 869.557873188349 1755 0 0 0 0
35	98999002 6776 869502 895882 869.657873188349 864000 234 0 0 0 0
vector 36 MobileNetwork.host[12] coordX:vector ETV
attr interpolationmode linear
attr source xCoord(mobilityPos(mobilityStateChanged))
attr title "coord X, vector"
36	2114355 53153 0 173731 0 173.6 1745 32.863278182688 176.70100228203 182878.19206076 22181033.616354
36	19901423 73624 173817 347400 173.690834279994 347.143114319817 1748 80.671290211036 187.00523982424 261455.33956871 41256929.538929
36	40125202 75022 347491 521113 347.231857669411 520.739980516096 1748 1.3504844402644 80.5933031791 50880.363199489 2460343.1873378
36	60439998 74937 521164 694814 520.785360583747 694.304030085536 1749 7.790812949747 62.97926613202 56786.266706031 2306990.0591721
36	80750632 75282 694838 869442 694.328374965594 869.581726244937 1755 1.7744824664275 70.123523088327 52888.275651549 2421898.1161656
36	99005778 13099 869535 895882 869.681726244937 864000 306 70.171153081792 84.611744889948 23694.901005657 1840213.4238723
vector 37 MobileNetwork.host[12] coordY:vector ETV
attr interpolationmode linear
attr source yCoord(mobilityPos(mobilityStateChanged))
attr title "coord Y, vector"
37	2167508 53145 0 173731 0 173.6 1745 51.927424841103 183.38290350196 205338.74727249 26681144.26965
37	19975047 73623 173817 347400 173.690834279994 347.143114319817 1748 128.25954797217 192.80010254921 297102.9963602 51282936.689701
37	40200224 75008 347491 521113 347.231857669411 520.739980516096 1748 80.114916717842 128.21221288954 167610.5241666 16426384.971737
37	60514935 75038 521164 694814 520.785360583747 694.304030085536 1749 103.20500830769 181.60175131475 235390.44496217 32710784.837199
37	80825914 75287 694838 869442 694.328374965594 869.581726244937 1755 107.58930029833 195.28825954643 278171.87394379 45413391.059464
37	99018877 13104 869535 895882 869.681726244937 864000 306 88.999398204664 107.52818604102 30051.889117944 2960274.5440449
vector 38 MobileNetwork.host[12] coordZ:vector ETV
attr interpolationmode linear
attr source zCoord(mobilityPos(mobilityStateChanged))
attr title "coord Z, vector"
38	2220653 28910 0 173731 0 173.6 1745 0 0 0 0
38	20048670 49301 173817 347400 173.690834279994 347.143114319817 1748 0 0 0 0
38	40275232 50692 347491 521113 347.231857669411 520.739980516096 1748 0 0 0 0
38	60589973 50719 521164 694814 520.785360583747 694.304030085536 1749 0 0 0 0
38	80901201 50895 694838 869442 694.328374965594 869.581726244937 1755 0 0 0 0
38	99031981 8851 869535 895882 869.681726244937 864000 306 0 0 0 0
vector 39 MobileNetwork.host[13] coordX:vector ETV
attr interpolationmode linear
attr source xCoord(mobilityPos(mobilityStateChanged))
attr title "coord X, vector"
39	2249563 53173 0 173732 0 173.6 1745 38.293077912071 127.01158641789 144248.89430556 13071290.590538
39	20097971 74220 173817 347436 173.690834279994 347.178780578924 1748 50.145947912068 130.1425491254 161471.407311 15939634.172999
39	40325924 74970 347491 521130 347.231857669411 520.758159903894 1748 9.3649515616777 50.120010301554 43875.975253352 1302059.2813607
39	60640692 74895 521164 694741 520.785360583747 694.233932322782 1749 33.637015398728 132.6319847998 158470.03402391 16474848.210383
39	80952096 75057 694838 869420 694.328374965594 869.564302359675 1756 88.424705364225 132.999242065 183091.28260745 19393325.14939
39	99040832 13102 869513 895882 869.664302359675 864000 306 133.04543329474 147.05786508554 42867.310728758 6010342.414888
vector 40 MobileNetwork.host[13] coordY:vector ETV
attr interpolationmode linear
attr source yCoord(mobilityPos(mobilityStateChanged))
attr title "coord Y, vector"
40	2302736 53149 0 173732 0 173.6 1745 7.8941113974908 158.68714868634 145377.11978263 15425283.537733
40	20172191 74206 173817 347436 173.690834279994 347.178780578924 1748 99.503606599506 164.0087820665 233366.95233365 31816458.425424
40	40400894 74969 347491 521130 347.231857669411 520.758159903894 1748 66.619892974155 131.7778812603 158146.33655289 14828169.011701
40	60715587 75023 521164 694741 520.785360583747 694.233932322782 1749 131.7987323377 153.04504998859 256399.75173045 37644780.116439
40	81027153 75063 694838 869420 694.328374965594 869.564302359675 1756 69.681332675958 132.29709120576 182075.24044077 19398433.030843
40	99053934 13101 869513 895882 869.664302359675 864000 306 56.127343917101 69.636799480369 19230.820873847 1213310.6150214
vector 41 MobileNetwork.host[13] coordZ:vector ETV
attr interpolationmode linear
attr source zCoord(mobilityPos(mobilityStateChanged))
attr title "coord Z, vector"
41	2355885 28910 0 173732 0 173.6 1745 0 0 0 0
41	20246397 49970 173817 347436 173.690834279994 347.178780578924 1748 0 0 0 0
41	40475863 50692 347491 521130 347.231857669411 520.758159903894 1748 0 0 0 0
41	60790610 50719 521164 694741 520.785360583747 694.233932322782 1749 0 0 0 0
41	81102216 50643 694838 869420 694.328374965594 869.564302359675 1756 0 0 0 0
41	99067035 8851 869513 895882 869.664302359675 864000 306 0 0 0 0
vector 42 MobileNetwork.host[14] coordX:vector ETV
attr interpolationmode linear
attr source xCoord(mobilityPos(mobilityStateChanged))
attr title "coord X, vector"
42	2384795 60401 0 173721 0 173.594116579426 1746 95.827173336951 177.19631362536 236412.39337552 32932540.205554
42	20296367 74605 173817 347439 173.690834279994 347.181575992043 1750 135.17680697828 194.13674873753 275252.2179103 44054248.303866
42	40526555 74972 347491 521121 347.231857669411 520.750472671656 1748 58.539288020916 138.16339686516 157657.6129104 15039443.699986
42	60841329 74926 521164 694751 520.785360583747 694.248809006441 1747 104.32136366666 187.20924369374 257307.78429211 38832151.474179
42	81152859 75337 694838 869464 694.328374965594 869.604661087145 1756 86.972587595992 193.35618977636 263481.21593327 41608619.38415
42	99075886 13059 869557 895882 869.704661087145 864000 305 64.217023605533 86.897722288335 23033.131479353 1752676.6500288
vector 43 MobileNetwork.host[14] coordY:vector ETV
attr interpolationmode linear
attr source yCoord(mobilityPos(mobilityStateChanged))
attr title "coord Y, vector"
43	2445196 60398 0 173721 0 173.594116579426 1746 56.991011637248 160.26412243113 190977.63120173 22384938.366393
43	20370972 73904 173817 347439 173.690834279994 347.181575992043 1750 36.176536663954 82.46419694452 117780.96545165 8431442.6195601
43	40601527 74980 347491 521121 347.231857669411 520.750472671656 1748 5.3316304718677 78.877780303826 70943.120299621 3700940.2846365
43	60916255 74941 521164 694751 520.785360583747 694.248809006441 1747 77.206521122577 145.27649748915 209761.92931671 25669315.481894
43	81228196 75333 694838 869464 694.328374965594 869.604661087145 1756 105.86900133699 148.89911250453 230628.73502099 30627200.604843
43	99088945 13057 869557 895882 869.704661087145 864000 305 96.664815465086 105.83871976685 30876.989041714 3128031.5297571
vector 44 MobileNetwork.host[14] coordZ:vector ETV
attr interpolationmode linear
attr source zCoord(mobilityPos(mobilityStateChanged))
attr title "coord Z, vector"
44	2505594 36140 0 173721 0 173.594116579426 1746 0 0 0 0
44	20444876 50218 173817 347439 173.690834279994 347.181575992043 1750 0 0 0 0
44	40676507 50692 347491 521121 347.231857669411 520.750472671656 1748 0 0 0 0
44	60991196 50661 521164 694751 520.785360583747 694.248809006441 1747 0 0 0 0
44	81303529 50924 694838 869464 694.328374965594 869.604661087145 1756 0 0 0 0
44	99102002 8822 869557 895882 869.704661087145 864000 305 0 0 0 0
vector 45 MobileNetwork.host[15] coordX:vector ETV
attr interpolationmode linear
attr source xCoord(mobilityPos(mobilityStateChanged))
attr title "coord X, vector"
45	2541734 70379 0 173750 0 173.609688927179 1747 29.839809157572 198.26587654676 216653.38316242 31806440.901643
45	20495094 75008 173817 347397 173.690834279994 347.138724802157 1748 4.3541539826387 96.434273230067 82115.534404539 5695915.115482
45	40727199 74961 347491 521097 347.231857669411 520.716834381649 1747 96.498613174192 117.08899043555 195487.63943718 21912760.788848
45	61041857 75082 521164 694768 520.785360583747 694.260490687331 1749 105.79668569374 122.18018638978 200586.74341188 23074130.620618
45	81354453 75105 694838 869460 694.328374965594 869.597566568735 1756 96.80355668723 142.56297306674 207943.18044761 25163610.177037
45	99110824 13102 869553 895882 869.697566568735 864000 306 96.856430474042 127.77036434358 34337.363018957 3877960.2969667
vector 46 MobileNetwork.host[15] coordY:vector ETV
attr interpolationmode linear
attr source yCoord(mobilityPos(mobilityStateChanged))
attr title "coord Y, vector"
46	2612113 70378 0 173750 0 173.609688927179 1747 180.99491818697 187.23010581296 321000.29129187 58988557.856612
46	20570102 75026 173817 347397 173.690834279994 347.138724802157 1748 143.11070590826 188.17359303114 297624.31252184 51064835.660894
46	40802160 74959 347491 521097 347.231857669411 520.716834381649 1747 44.657008401231 143.03992645138 171150.18233935 18091853.853902
46	61116939 75072 521164 694768 520.785360583747 694.260490687331 1749 39.697708000544 124.10000568599 152034.65244654 15118331.815606
46	81429558 75376 694838 869460 694.328374965594 869.597566568735 1756 54.645164677347 97.69296183354 136081.92244579 10993842.020279
46	99123926 13102 869553 895882 869.697566568735 864000 306 96.399840810594 97.614135564299 29685.337858028 2879839.9082435
vector 47 MobileNetwork.host[15] coordZ:vector ETV
attr interpolationmode linear
attr source zCoord(mobilityPos(mobilityStateChanged))
attr title "coord Z, vector"
47	2682491 46094 0 173750 0 173.609688927179 1747 0 0 0 0
47	20645128 50691 173817 347397 173.690834279994 347.138724802157 1748 0 0 0 0
47	40877119 50663 347491 521097 347.231857669411 520.716834381649 1747 0 0 0 0
47	61192011 50719 521164 694768 520.785360583747 694.260490687331 1749 0 0 0 0
47	81504934 50924 694838 869460 694.328374965594 869.597566568735 1756 0 0 0 0
47	99137028 8851 869553 895882 869.697566568735 864000 306 0 0 0 0
vector 48 MobileNetwork.host[16] coordX:vector ETV
attr interpolationmode linear
attr source xCoord(mobilityPos(mobilityStateChanged))
attr title "coord X, vector"
48	2728585 53160 0 173733 0 173.6 1745 53.671545943938 163.21481453603 189258.75365912 22275365.746314
48	20695819 71835 173817 347464 173.690834279994 347.210173502908 1749 123.12297493624 180.6331206458 266814.24692102 41451262.651362
48	40927782 74842 347491 521088 347.231857669411 520.70985235993 1749 75.072859384412 164.46587715286 212650.94073354 27336578.535937
48	61242730 74786 521164 694765 520.785360583747 694.258381165477 1746 13.499822432294 75.072859384412 58920.319466273 2937374.9414715
48	81555858 75338 694838 869446 694.328374965594 869.584606279193 1755 16.522715164643 40.266270521354 46141.685090467 1258562.6982806
48	99145879 13105 869539 895882 869.684606279193 864000 306 40.336883565184 61.743505820384 15638.053962074 811080.31357237
vector 49 MobileNetwork.host[16] coordY:vector ETV
attr interpolationmode linear
attr source yCoord(mobilityPos(mobilityStateChanged))
attr title "coord Y, vector"
49	2781745 53145 0 173733 0 173.6 1745 199.74459980828 199.77609808806 348581.81621931 69632826.848746
49	20767654 71959 173817 347464 173.690834279994 347.210173502908 1749 165.76055354107 199.78110658093 321794.45967223 59504523.730049
49	41002624 74829 347491 521088 347.231857669411 520.70985235993 1749 123.38891094575 185.45143856152 275513.93228251 44176392.754786
49	61317516 74788 521164 694765 520.785360583747 694.258381165477 1746 65.392038671019 123.38891094575 149693.32717282 13624541.821205
49	81631196 75333 694838 869446 694.328374965594 869.584606279193 1755 86.969356386422 181.85314186915 268744.3614112 42857233.25641
49	99158984 13087 869539 895882 869.684606279193 864000 306 152.9415110406 172.32578262497 49748.007803492 8097550.7054548
vector 50 MobileNetwork.host[16] coordZ:vector ETV
attr interpolationmode linear
attr source zCoord(mobilityPos(mobilityStateChanged))
attr title "coord Z, vector"
50	2834890 28910 0 173733 0 173.6 1745 0 0 0 0
50	20839613 47628 173817 347464 173.690834279994 347.210173502908 1749 0 0 0 0
50	41077453 50489 347491 521088 347.231857669411 520.70985235993 1749 0 0 0 0
50	61392304 50454 521164 694765 520.785360583747 694.258381165477 1746 0 0 0 0
50	81706529 50895 694838 869446 694.328374965594 869.584606279193 1755 0 0 0 0
50	99172071 8851 869539 895882 869.684606279193 864000 306 0 0 0 0
vector 51 MobileNetwork.host[17] coordX:vector ETV
attr interpolationmode linear
attr source xCoord(mobilityPos(mobilityStateChanged))
attr title "coord X, vector"
51	2863800 63742 0 173809 0 173.682485116923 1748 65.152016023981 127.40792607891 140036.13394804 11837941.877697
51	20887241 74975 173817 347408 173.690834279994 347.149730592642 1747 127.4146677747 175.96275291868 280531.79674403 45395915.275363
51	41127942 75040 347491 521163 347.231857669411 520.782682812794 1750 131.6173054531 140.70948916098 237607.48620183 32268262.909794
51	61442758 75013 521164 694754 520.785360583747 694.249559400394 1747 99.629091819312 139.25577456556 227695.48001525 29853122.358202
51	81757424 75357 694838 869469 694.328374965594 869.610260677097 1756 24.387302113217 99.571147489115 82842.683178539 4938540.3475778
51	99180922 13057 869562 895882 869.710260677097 864000 305 32.646950653078 39.615825337513 11023.914243528 399699.50412447
vector 52 MobileNetwork.host[17] coordY:vector ETV
attr interpolationmode linear
attr source yCoord(mobilityPos(mobilityStateChanged))
attr title "coord Y, vector"
52	2927542 63737 0 173809 0 173.682485116923 1748 102.89040812899 187.95948372863 270977.70282486 42987990.531429
52	20962216 74976 173817 347408 173.690834279994 347.149730592642 1747 81.519837049163 128.1528725699 163474.92760693 15575087.625637
52	41202982 75065 347491 521163 347.231857669411 520.782682812794 1750 29.172224510454 109.31455569018 122950.65865191 9804987.3055825
52	61517771 75009 521164 694754 520.785360583747 694.249559400394 1747 101.47227240895 151.75945902161 241472.51586291 33742060.417999
52	81832781 74971 694838 869469 694.328374965594 869.610260677097 1756 5.988682620456 101.39873969957 64659.540435792 3928207.4342291
52	99193979 13061 869562 895882 869.710260677097 864000 305 35.235171456792 59.911174881941 14523.418030222 707262.04930213
vector 53 MobileNetwork.host[17] coordZ:vector ETV
attr interpolationmode linear
attr source zCoord(mobilityPos(mobilityStateChanged))
attr title "coord Z, vector"
53	2991279 39441 0 173809 0 173.682485116923 1748 0 0 0 0
53	21037192 50662 173817 347408 173.690834279994 347.149730592642 1747 0 0 0 0
53	41278047 50750 347491 521163 347.231857669411 520.782682812794 1750 0 0 0 0
53	61592780 50661 521164 694754 520.785360583747 694.249559400394 1747 0 0 0 0
53	81907752 50924 694838 869469 694.328374965594 869.610260677097 1756 0 0 0 0
53	99207040 8822 869562 895882 869.710260677097 864000 305 0 0 0 0
vector 54 MobileNetwork.host[18] coordX:vector ETV
attr interpolationmode linear
attr source xCoord(mobilityPos(mobilityStateChanged))
attr title "coord X, vector"
54	3030720 68420 0 173719 0 173.593512930839 1748 151.34188354193 172.27112922357 290964.58173199 48494642.032337
54	21087854 74892 173817 347434 173.690834279994 347.176718397448 1749 118.46263940897 156.50925002052 237987.49455338 32642505.188826
54	41328797 74871 347491 521086 347.231857669411 520.708527760701 1745 96.854807963674 118.45392570804 183865.48347057 19460948.702463
54	61643441 74986 521164 694792 520.785360583747 694.287166936511 1748 96.854807963674 184.42387634952 235648.78799866 32913929.199323
54	81958676 74327 694838 869456 694.328374965594 869.59397791357 1755 104.13300981732 198.74178997085 299908.56645429 52886888.753432
54	99215862 6024 869549 895882 869.69397791357 864000 144 90.603134991815 104.03821144041 14005.605743303 1364435.4359194
vector 55 MobileNetwork.host[18] coordY:vector ETV
attr interpolationmode linear
attr source yCoord(mobilityPos(mobilityStateChanged))
attr title "coord Y, vector"
55	3099140 67830 0 173719 0 173.593512930839 1748 29.45805124708 113.37440594213 85361.132222069 5334435.6174696
55	21162746 74886 173817 347434 173.690834279994 347.176718397448 1749 96.734123760238 166.43367891527 241522.96887844 34064030.646186
55	41403668 74879 347491 521086 347.231857669411 520.708527760701 1745 1.9117100945853 96.695885117162 68519.583083303 4377213.5602009
55	61718427 74873 521164 694792 520.785360583747 694.287166936511 1748 1.9117100945853 135.63769757311 95197.955970568 8024256.5366982
55	82033003 74336 694838 869456 694.328374965594 869.59397791357 1755 135.68171547076 189.27094109092 292420.38054411 48975437.279109
55	99221886 6024 869549 895882 869.69397791357 864000 144 189.30047553787 193.48617539346 27563.309225501 5276161.4014337
vector 56 MobileNetwork.host[18] coordZ:vector ETV
attr interpolationmode linear
attr source zCoord(mobilityPos(mobilityStateChanged))
attr title "coord Z, vector"
56	3166970 44077 0 173719 0 173.593512930839 1748 0 0 0 0
56	21237632 50563 173817 347434 173.690834279994 347.176718397448 1749 0 0 0 0
56	41478547 50605 347491 521086 347.231857669411 520.708527760701 1745 0 0 0 0
56	61793300 50690 521164 694792 520.785360583747 694.287166936511 1748 0 0 0 0
56	82107339 49896 694838 869456 694.328374965594 869.59397791357 1755 0 0 0 0
56	99227910 4024 869549 895882 869.69397791357 864000 144 0 0 0 0
vector 57 MobileNetwork.host[19] coordX:vector ETV
attr interpolationmode linear
attr source xCoord(mobilityPos(mobilityStateChanged))
attr title "coord X, vector"
57	3211047 53149 0 173734 0 173.6 1745 52.290471025318 137.64607436251 165699.84106336 16796117.374411
57	21288195 66310 173817 347473 173.690834279994 347.217385457094 1748 14.229864273292 55.196251672739 57689.589184344 2155345.1859431
57	41529152 74977 347491 521131 347.231857669411 520.758222060119 1748 55.203035131049 122.43139336256 164630.35887026 16287957.306227
57	61843990 74961 521164 694817 520.785360583747 694.306909497977 1747 122.43565868691 144.36406820572 236807.57527116 32188947.278048
57	82157235 75342 694838 869470 694.328374965594 869.610431779899 1756 25.061027827893 144.36406820572 125497.01270594 11479123.376039
57	99231934 13054 869563 895882 869.710431779899 864000 305 58.545281203832 90.239767982885 22707.215505444 1716433.4035381
vector 58 MobileNetwork.host[19] coordY:vector ETV
attr interpolationmode linear
attr source yCoord(mobilityPos(mobilityStateChanged))
attr title "coord Y, vector"
58	3264196 53149 0 173734 0 173.6 1745 101.50410767596 138.16660364391 209104.19324023 25252945.572664
58	21354505 66314 173817 347473 173.690834279994 347.217385457094 1748 85.156067394735 129.02952607687 174491.86519128 17675391.561309
58	41604129 74988 347491 521131 347.231857669411 520.758222060119 1748 129.03679090535 196.86145410208 295622.6058626 50766099.625055
58	61918951 74962 521164 694817 520.785360583747 694.306909497977 1747 70.745079345638 177.80983431132 198764.33528864 24746616.968573
58	82232577 75363 694838 869470 694.328374965594 869.610431779899 1756 47.194232185769 70.745079345638 101235.77346384 5931193.0999977
58	99244988 13055 869563 895882 869.710431779899 864000 305 68.07570556993 87.841043463862 23788.214786321 1865407.7898484
vector 59 MobileNetwork.host[19] coordZ:vector ETV
attr interpolationmode linear
attr source zCoord(mobilityPos(mobilityStateChanged))
attr title "coord Z, vector"
59	3317345 28910 0 173734 0 173.6 1745 0 0 0 0
59	21420819 42021 173817 347473 173.690834279994 347.217385457094 1748 0 0 0 0
59	41679117 50692 347491 521131 347.231857669411 520.758222060119 1748 0 0 0 0
59	61993913 50661 521164 694817 520.785360583747 694.306909497977 1747 0 0 0 0
59	82307940 50924 694838 869470 694.328374965594 869.610431779899 1756 0 0 0 0
59	99258043 8822 869563 895882 869.710431779899 864000 305 0 0 0 0
vector 60 MobileNetwork.host[20] coordX:vector ETV
attr interpolationmode linear
attr source xCoord(mobilityPos(mobilityStateChanged))
attr title "coord X, vector"
60	3346255 72186 0 173814 0 173.687764772905 1753 127.56149196162 165.33785753667 258957.03529691 38578120.411135
60	21462840 74301 173817 347459 173.690834279994 347.20704753646 1748 164.36585902249 192.95182298231 319817.34724002 58617052.070637
60	41729809 73375 347491 521154 347.231857669411 520.779342073203 1747 48.496751021513 184.62996061597 192580.50315838 24360517.046626
60	62044574 75045 521164 694820 520.785360583747 694.313665333213 1748 48.496751021513 68.748738636602 106713.07202376 6638100.1792363
60	82358864 74513 694838 869417 694.328374965594 869.56332656912 1755 64.518772969082 129.54856002751 139839.6938408 11864288.132956
60	99266865 12797 869510 895882 869.66332656912 864000 306 129.63025573989 154.41401721315 43479.003508956 6193786.7065495
vector 61 MobileNetwork.host[20] coordY:vector ETV
attr interpolationmode linear
attr source yCoord(mobilityPos(mobilityStateChanged))
attr title "coord Y, vector"
61	3418441 72201 0 173814 0 173.687764772905 1753 120.42406636652 193.03952910165 258761.68603048 39655083.753556
61	21537141 74309 173817 347459 173.690834279994 347.20704753646 1748 78.2344285667 126.12900451085 184886.17381807 20197002.142687
61	41803184 73371 347491 521154 347.231857669411 520.779342073203 1747 20.993850591545 78.225410178075 82020.122572635 4404228.805196
61	62119619 75047 521164 694820 520.785360583747 694.313665333213 1748 20.993850591545 117.63946592234 103289.40816159 7651385.3908364
61	82433377 74506 694838 869417 694.328374965594 869.56332656912 1755 117.65233836491 172.27603572575 280559.16994027 45240297.04276
61	99279662 12795 869510 895882 869.66332656912 864000 306 155.96532624919 160.46212401113 48409.729378321 7659027.4105308
vector 62 MobileNetwork.host[20] coordZ:vector ETV
attr interpolationmode linear
attr source zCoord(mobilityPos(mobilityStateChanged))
attr title "coord Z, vector"
62	3490642 47765 0 173814 0 173.687764772905 1753 0 0 0 0
62	21611450 49927 173817 347459 173.690834279994 347.20704753646 1748 0 0 0 0
62	41876555 49089 347491 521154 347.231857669411 520.779342073203 1747 0 0 0 0
62	62194666 50690 521164 694820 520.785360583747 694.313665333213 1748 0 0 0 0
62	82507883 50098 694838 869417 694.328374965594 869.56332656912 1755 0 0 0 0
62	99292457 8547 869510 895882 869.66332656912 864000 306 0 0 0 0
vector 63 MobileNetwork.host[21] coordX:vector ETV
attr interpolationmode linear
attr source xCoord(mobilityPos(mobilityStateChanged))
attr title "coord X, vector"
63	3538407 71349 0 173790 0 173.655270210522 1747 26.739422202711 184.10616353628 177078.19334548 22903356.340834
63	21661377 74923 173817 347481 173.690834279994 347.224852274421 1746 26.739422202711 93.852620883662 93348.160734172 5832364.3055009
63	41925644 74950 347491 521089 347.231857669411 520.710248481668 1747 79.314851355092 103.46719015326 163508.48444128 15401635.33634
63	62245356 74979 521164 694762 520.785360583747 694.257647525855 1748 54.111044426961 79.30131304959 114357.60879279 7577944.0645521
63	82557981 69264 694838 856177 694.328374965594 855.61308174652 1615 70.409728543178 175.68213179786 198705.40541533 25943663.058535
63	99301004 33 895882 895882 864000 864000 1 175.68213179786 175.68213179786 175.68213179786 30864.211433041
vector 64 MobileNetwork.host[21] coordY:vector ETV
attr interpolationmode linear
attr source yCoord(mobilityPos(mobilityStateChanged))
attr title "coord Y, vector"
64	3609756 71351 0 173790 0 173.655270210522 1747 156.20292984408 194.77556022334 308318.89201105 54711255.547105
64	21736300 74923 173817 347481 173.690834279994 347.224852274421 1746 39.195497958176 194.77556022334 231909.51770866 35325677.439411
64	42000594 74959 347491 521089 347.231857669411 520.710248481668 1747 16.907254885053 92.7519049745 82915.328345739 4924976.4016794
64	62320335 74983 521164 694762 520.785360583747 694.257647525855 1748 92.794418788676 171.89843953418 244701.69839811 35413673.084853
64	82627245 69259 694838 856177 694.328374965594 855.61308174652 1615 165.72553690354 171.0708563297 271963.78681428 45802184.627316
64	99301037 33 895882 895882 864000 864000 1 165.72553690354 165.72553690354 165.72553690354 27464.953581967
vector 65 MobileNetwork.host[21] coordZ:vector ETV
attr interpolationmode linear
attr source zCoord(mobilityPos(mobilityStateChanged))
attr title "coord Z, vector"
65	3681107 47045 0 173790 0 173.655270210522 1747 0 0 0 0
65	21811223 50633 173817 347481 173.690834279994 347.224852274421 1746 0 0 0 0
65	42075553 50663 347491 521089 347.231857669411 520.710248481668 1747 0 0 0 0
65	62395318 50690 521164 694762 520.785360583747 694.257647525855 1748 0 0 0 0
65	82696504 46834 694838 856177 694.328374965594 855.61308174652 1615 0 0 0 0
65	99301070 19 895882 895882 864000 864000 1 0 0 0 0
vector 66 MobileNetwork.host[22] coordX:vector ETV
attr interpolationmode linear
attr source xCoord(mobilityPos(mobilityStateChanged))
attr title "coord X, vector"
66	3728152 61740 0 173810 0 173.683065903646 1748 84.298833885616 195.01858954565 282469.17719581 47813124.735853
66	21861856 75060 173817 347474 173.690834279994 347.217825081387 1749 18.394443090872 165.60149593728 139524.98119906 14334087.129071
66	42126216 74875 347491 521098 347.231857669411 520.716918761693 1747 18.407859889792 175.31816956855 176683.54664182 21809497.990648
66	62446008 74857 521164 694826 520.785360583747 694.320501393439 1749 141.55210682846 176.7486255671 268235.47572573 41517541.21683
66	82743338 75294 694838 869414 694.328374965594 869.559857361808 1754 141.55210682846 182.97274412609 277114.55683451 44011789.467632
66	99301089 13099 869507 895882 869.659857361808 864000 306 183.01016105194 194.36250972288 57747.087915758 10901139.817409
vector 67 MobileNetwork.host[22] coordY:vector ETV
attr interpolationmode linear
attr source yCoord(mobilityPos(mobilityStateChanged))
attr title "coord Y, vector"
67	3789892 61739 0 173810 0 173.683065903646 1748 61.004009579857 68.165213519652 113684.75570701 7398439.8848581
67	21936916 75053 173817 347474 173.690834279994 347.217825081387 1749 46.894925971433 61.0030218408 91542.825045975 4820527.9436615
67	42201091 74932 347491 521098 347.231857669411 520.716918761693 1747 46.904759874005 167.8527559483 188009.48711602 22365599.881765
67	62520865 75090 521164 694826 520.785360583747 694.320501393439 1749 100.14040563885 186.08380250291 253174.68886983 38669430.82908
67	82818632 75291 694838 869414 694.328374965594 869.559857361808 1754 68.772320458457 129.81481443172 194067.00328713 22029665.085533
67	99314188 13101 869507 895882 869.659857361808 864000 306 44.919403596618 68.693960389172 17363.851414496 999962.0791256
vector 68 MobileNetwork.host[22] coordZ:vector ETV
attr interpolationmode linear
attr source zCoord(mobilityPos(mobilityStateChanged))
attr title "coord Z, vector"
68	3851631 37405 0 173810 0 173.683065903646 1748 0 0 0 0
68	22011969 50720 173817 347474 173.690834279994 347.217825081387 1749 0 0 0 0
68	42276023 50663 347491 521098 347.231857669411 520.716918761693 1747 0 0 0 0
68	62595955 50719 521164 694826 520.785360583747 694.320501393439 1749 0 0 0 0
68	82893923 50866 694838 869414 694.328374965594 869.559857361808 1754 0 0 0 0
68	99327289 8851 869507 895882 869.659857361808 864000 306 0 0 0 0
vector 69 MobileNetwork.host[23] coordX:vector ETV
attr interpolationmode linear
attr source xCoord(mobilityPos(mobilityStateChanged))
attr title "coord X, vector"
69	3889036 70387 0 173749 0 173.60844180325 1749 78.805823294108 155.73524440039 217337.34748891 27788113.335078
69	22062689 73867 173817 347452 173.690834279994 347.194824662233 1748 3.4589393138308 78.752510716786 50210.111366681 2543228.7612334
69	42326686 74977 347491 521106 347.231857669411 520.733074525872 1747 6.5605921080918 181.12299678012 205797.3786151 30115959.180301
69	62646674 74990 521164 694808 520.785360583747 694.301423639909 1748 40.989278905045 181.12299678012 197097.05153502 25579482.009671
69	82944789 75197 694838 869435 694.328374965594 869.575410252909 1756 40.989278905045 110.3512063003 136384.93668857 12140367.781474
69	99336140 13142 869528 895882 869.675410252909 864000 307 103.15803045126 105.53967201639 32003.599847249 3336410.9588102
vector 70 MobileNetwork.host[23] coordY:vector ETV
attr interpolationmode linear
attr source yCoord(mobilityPos(mobilityStateChanged))
attr title "coord Y, vector"
70	3959423 70961 0 173749 0 173.60844180325 1749 72.442016702579 102.85311423834 149760.73949409 12938390.829347
70	22136556 73867 173817 347452 173.690834279994 347.194824662233 1748 102.87318614196 131.22081788024 212755.91664418 26051585.612723
70	42401663 74976 347491 521106 347.231857669411 520.733074525872 1747 111.92205037729 130.88390068379 207544.41373592 24725670.159567
70	62721664 74928 521164 694808 520.785360583747 694.301423639909 1748 70.67794245698 111.92205037729 160466.79465667 15021568.536387
70	83019986 74893 694838 869435 694.328374965594 869.575410252909 1756 70.67794245698 166.67887877799 171864.34789802 18141663.67157
70	99349282 13146 869528 895882 869.675410252909 864000 307 166.81270310352 196.29001595012 56714.517801945 10502211.345231
vector 71 MobileNetwork.host[23] coordZ:vector ETV
attr interpolationmode linear
attr source zCoord(mobilityPos(mobilityStateChanged))
attr title "coord Z, vector"
71	4030384 46606 0 173749 0 173.60844180325 1749 0 0 0 0
71	22210423 49527 173817 347452 173.690834279994 347.194824662233 1748 0 0 0 0
71	42476639 50663 347491 521106 347.231857669411 520.733074525872 1747 0 0 0 0
71	62796592 50690 521164 694808 520.785360583747 694.301423639909 1748 0 0 0 0
71	83094879 50924 694838 869435 694.328374965594 869.575410252909 1756 0 0 0 0
71	99362428 8880 869528 895882 869.675410252909 864000 307 0 0 0 0
vector 72 MobileNetwork.host[24] coordX:vector ETV
attr interpolationmode linear
attr source xCoord(mobilityPos(mobilityStateChanged))
attr title "coord X, vector"
72	4076990 69437 0 173720 0 173.594092722592 1748 15.400229356008 118.67141880876 101341.70428372 7583528.9879529
72	22259950 75073 173817 347461 173.690834279994 347.208783921613 1748 118.74727769792 166.97250243753 245497.70381986 35141672.092089
72	42527302 74964 347491 521067 347.231857669411 520.688703664319 1747 155.43829214543 196.54936961731 316878.17167241 57721600.404832
72	62847282 75032 521164 694781 520.785360583747 694.271582678395 1748 41.208740053544 155.38045124146 168284.48161687 18919405.877526
72	83145803 75376 694838 869467 694.328374965594 869.605269758923 1757 41.208740053544 199.78145323966 251555.23993778 41078954.448553
72	99371308 13125 869560 895882 869.705269758923 864000 306 189.82722529196 191.71091972085 58565.511427811 11208979.61965
vector 73 MobileNetwork.host[24] coordY:vector ETV
attr interpolationmode linear
attr source yCoord(mobilityPos(mobilityStateChanged))
attr title "coord Y, vector"
73	4146427 69272 0 173720 0 173.594092722592 1748 16.261373972991 174.3309224358 199600.94813018 27542042.610357
73	22335023 75076 173817 347461 173.690834279994 347.208783921613 1748 10.900477064949 16.145517565293 22593.967385165 295932.7127434
73	42602266 74958 347491 521067 347.231857669411 520.688703664319 1747 10.900477064949 87.228117872485 86767.222935937 5080734.5730773
73	62922314 75033 521164 694781 520.785360583747 694.271582678395 1748 87.276570851867 120.33746454899 194313.48607207 21730576.050119
73	83221179 75378 694838 869467 694.328374965594 869.605269758923 1757 112.41289035792 183.80551894415 259341.64485325 39089883.921583
73	99384433 13122 869560 895882 869.705269758923 864000 306 178.12774471515 183.80551894415 55949.009743852 10230561.584354
vector 74 MobileNetwork.host[24] coordZ:vector ETV
attr interpolationmode linear
attr source zCoord(mobilityPos(mobilityStateChanged))
attr title "coord Z, vector"
74	4215699 45140 0 173720 0 173.594092722592 1748 0 0 0 0
74	22410099 50691 173817 347461 173.690834279994 347.208783921613 1748 0 0 0 0
74	42677224 50663 347491 521067 347.231857669411 520.688703664319 1747 0 0 0 0
74	62997347 50690 521164 694781 520.785360583747 694.271582678395 1748 0 0 0 0
74	83296557 50953 694838 869467 694.328374965594 869.605269758923 1757 0 0 0 0
74	99397555 8851 869560 895882 869.705269758923 864000 306 0 0 0 0
vector 75 MobileNetwork.host[25] coordX:vector ETV
attr interpolationmode linear
attr source xCoord(mobilityPos(mobilityStateChanged))
attr title "coord X, vector"
75	4260839 70415 0 173774 0 173.637089808513 1748 120.64516243183 185.98325333975 262971.47963373 40573054.51558
75	22460790 74130 173817 347472 173.690834279994 347.21734099414 1748 15.458558025748 120.64483298192 164155.60128935 17431121.706148
75	42727887 74911 347491 521114 347.231857669411 520.741704365843 1748 0.14089321215671 130.61234133005 140203.7339662 14535926.464888
75	63048037 74836 521164 694776 520.785360583747 694.267316552319 1747 25.440716683197 115.38107735388 108803.9267678 7930412.6357536
75	83347510 75356 694838 869419 694.328374965594 869.564028808322 1755 100.49551121776 139.16566219325 219314.41026621 27775790.413081
75	99406406 13130 869512 895882 869.664028808322 864000 306 100.27441209251 100.49551121776 30745.834841638 3089237.2458768
vector 76 MobileNetwork.host[25] coordY:vector ETV
attr interpolationmode linear
attr source yCoord(mobilityPos(mobilityStateChanged))
attr title "coord Y, vector"
76	4331254 70401 0 173774 0 173.637089808513 1748 11.36420730115 172.83730572947 156179.08751747 19188975.651975
76	22534920 73613 173817 347472 173.690834279994 347.21734099414 1748 57.039913219849 136.699987786 194666.42682357 22452722.817622
76	42802798 74849 347491 521114 347.231857669411 520.741704365843 1748 84.98566160523 101.93798315325 166615.93484209 15934142.601454
76	63122873 74829 521164 694776 520.785360583747 694.267316552319 1747 77.38408291668 104.29967643666 166824.8826205 16060880.542436
76	83422866 75379 694838 869419 694.328374965594 869.564028808322 1755 70.266297166154 77.368991792412 125732.51418271 9012135.6313831
76	99419536 13131 869512 895882 869.664028808322 864000 306 72.762233234012 76.498461527325 22363.112169947 1634563.7247262
vector 77 MobileNetwork.host[25] coordZ:vector ETV
attr interpolationmode linear
attr source zCoord(mobilityPos(mobilityStateChanged))
attr title "coord Z, vector"
77	4401655 46113 0 173774 0 173.637089808513 1748 0 0 0 0
77	22608533 49815 173817 347472 173.690834279994 347.21734099414 1748 0 0 0 0
77	42877647 50565 347491 521114 347.231857669411 520.741704365843 1748 0 0 0 0
77	63197702 50544 521164 694776 520.785360583747 694.267316552319 1747 0 0 0 0
77	83498245 50895 694838 869419 694.328374965594 869.564028808322 1755 0 0 0 0
77	99432667 8851 869512 895882 869.664028808322 864000 306 0 0 0 0
vector 78 MobileNetwork.host[26] coordX:vector ETV
attr interpolationmode linear
attr source xCoord(mobilityPos(mobilityStateChanged))
attr title "coord X, vector"
78	4447768 69126 0 173768 0 173.629495608944 1748 26.068186725811 119.19801584362 125166.47071388 11227886.134282
78	22658348 74964 173817 347484 173.690834279994 347.225528671606 1747 26.068186725811 141.90601969871 157739.91276568 16870998.211534
78	42928212 75017 347491 521076 347.231857669411 520.697252384769 1747 104.98155861955 171.68557431692 259454.54165811 39328502.446565
78	63248246 75147 521164 694787 520.785360583747 694.281579335532 1750 39.760680026957 110.45880897859 142947.88358744 13166367.115344
78	83549140 75349 694838 869491 694.328374965594 869.636193848175 1756 24.518141425538 146.49064331768 140725.53279958 14723749.109319
78	99441518 13072 869584 895882 869.736193848175 864000 305 132.08142942996 146.49064331768 43238.605635458 6136900.1634636
vector 79 MobileNetwork.host[26] coordY:vector ETV
attr interpolationmode linear
attr source yCoord(mobilityPos(mobilityStateChanged))
attr title "coord Y, vector"
79	4516894 69133 0 173768 0 173.629495608944 1748 80.895720524501 197.26725060933 245358.88862076 37976935.564186
79	22733312 74964 173817 347484 173.690834279994 347.225528671606 1747 147.72357281936 197.26725060933 296638.62233402 50849698.797336
79	43003229 75018 347491 521076 347.231857669411 520.697252384769 1747 115.85205171095 147.72357281936 223576.4925483 28785867.914594
79	63323393 75146 521164 694787 520.785360583747 694.281579335532 1750 59.811222919861 115.85205171095 147918.91835949 13243536.061991
79	83624489 75345 694838 869491 694.328374965594 869.636193848175 1756 46.255011723851 98.548305536753 123987.29882371 9245929.1251408
79	99454590 13070 869584 895882 869.736193848175 864000 305 46.255011723851 70.466187472493 16529.096416488 915930.4042454
vector 80 MobileNetwork.host[26] coordZ:vector ETV
attr interpolationmode linear
attr source zCoord(mobilityPos(mobilityStateChanged))
attr title "coord Z, vector"
80	4586027 44780 0 173768 0 173.629495608944 1748 0 0 0 0
80	22808276 50662 173817 347484 173.690834279994 347.225528671606 1747 0 0 0 0
80	43078247 50663 347491 521076 347.231857669411 520.697252384769 1747 0 0 0 0
80	63398539 50748 521164 694787 520.785360583747 694.281579335532 1750 0 0 0 0
80	83699834 50924 694838 869491 694.328374965594 869.636193848175 1756 0 0 0 0
80	99467660 8822 869584 895882 869.736193848175 864000 305 0 0 0 0
vector 81 MobileNetwork.host[27] coordX:vector ETV
attr interpolationmode linear
attr source xCoord(mobilityPos(mobilityStateChanged))
attr title "coord X, vector"
81	4630807 69895 0 173796 0 173.660624545679 1749 3.3148133985588 104.2964768026 60217.850140379 3974327.3813892
81	22858938 74630 173817 347429 173.690834279994 347.170865789742 1747 104.32561366241 176.97079903949 269077.76737615 42183291.665409
81	43128910 74888 347491 521092 347.231857669411 520.712559768474 1747 37.63752541993 138.15442991525 149964.85733696 14458663.624801
81	63449287 74975 521164 694835 520.785360583747 694.327864770421 1748 38.161064052099 86.839367172281 98577.396152154 5888562.0532633
81	83750758 75226 694838 869479 694.328374965594 869.627864770421 1754 86.839602180499 167.58678075247 223131.73196501 29339388.675026
81	99476482 13055 869572 895882 869.727864770421 864000 305 167.63284316752 181.57691974103 53263.398994958 9306621.0554827
vector 82 MobileNetwork.host[27] coordY:vector ETV
attr interpolationmode linear
attr source yCoord(mobilityPos(mobilityStateChanged))
attr title "coord Y, vector"
82	4700702 69897 0 173796 0 173.660624545679 1749 23.503790207304 48.18078711909 62713.271302498 2316911.2532914
82	22933568 74630 173817 347429 173.690834279994 347.170865789742 1747 11.273942387786 23.498886971189 27684.855708419 463181.94857273
82	43203798 74923 347491 521092 347.231857669411 520.712559768474 1747 21.650955463276 51.936488307442 62313.113744436 2337524.0629935
82	63524262 74966 521164 694835 520.785360583747 694.327864770421 1748 52.016657154582 167.53620532303 222409.32260284 30336457.570053
82	83825984 75230 694838 869479 694.328374965594 869.627864770421 1754 69.634868844555 140.14454154745 183976.72268018 20024800.594035
82	99489537 13057 869572 895882 869.727864770421 864000 305 57.418465267403 69.594646438442 19361.719054505 1232926.5780392
vector 83 MobileNetwork.host[27] coordZ:vector ETV
attr interpolationmode linear
attr source zCoord(mobilityPos(mobilityStateChanged))
attr title "coord Z, vector"
83	4770599 45547 0 173796 0 173.660624545679 1749 0 0 0 0
83	23008198 50322 173817 347429 173.690834279994 347.170865789742 1747 0 0 0 0
83	43278721 50663 347491 521092 347.231857669411 520.712559768474 1747 0 0 0 0
83	63599228 50690 521164 694835 520.785360583747 694.327864770421 1748 0 0 0 0
83	83901214 50866 694838 869479 694.328374965594 869.627864770421 1754 0 0 0 0
83	99502594 8822 869572 895882 869.727864770421 864000 305 0 0 0 0
vector 84 MobileNetwork.host[28] coordX:vector ETV
attr interpolationmode linear
attr source xCoord(mobilityPos(mobilityStateChanged))
attr title "coord X, vector"
84	4816146 58247 0 173747 0 173.607003332025 1746 53.490781840654 157.21619982992 160694.02214843 16852924.191815
84	23058520 75026 173817 347421 173.690834279994 347.161962896608 1748 53.490781840654 102.67126134121 152442.41945779 13748640.715307
84	43329384 74934 347491 521134 347.231857669411 520.761962896608 1747 42.466456368356 96.851392037916 121701.5687004 8909297.3543817
84	63649918 74791 521164 694785 520.785360583747 694.278448965604 1747 30.410195139646 69.82651057679 87490.91781626 4664701.5378658
84	83952080 75328 694838 869415 694.328374965594 869.560816272101 1756 47.413978099483 90.897471847459 129807.37427041 9805541.977334
84	99511416 13100 869508 895882 869.660816272101 864000 306 32.49174523223 47.364954994919 12206.121705136 492630.1299163
vector 85 MobileNetwork.host[28] coordY:vector ETV
attr interpolationmode linear
attr source yCoord(mobilityPos(mobilityStateChanged))
attr title "coord Y, vector"
85	4874393 58220 0 173747 0 173.607003332025 1746 132.32946602073 138.51301308915 237831.71236011 32403623.601393
85	23133546 75023 173817 347421 173.690834279994 347.161962896608 1748 8.4544094738585 138.51301308915 85826.278439011 7417692.0261822
85	43404318 74930 347491 521134 347.231857669411 520.761962896608 1747 19.285760110835 120.50148797485 122090.33674369 10025841.363503
85	63724709 74823 521164 694785 520.785360583747 694.278448965604 1747 74.729760641335 164.45426162588 239338.81299771 33773861.110671
85	84027408 75329 694838 869415 694.328374965594 869.560816272101 1756 4.908744546006 74.661055343249 51522.310933488 1952696.2471879
85	99524516 13064 869508 895882 869.660816272101 864000 306 45.938480752338 59.956596800435 16213.213066094 864142.63970401
vector 86 MobileNetwork.host[28] coordZ:vector ETV
attr interpolationmode linear
attr source zCoord(mobilityPos(mobilityStateChanged))
attr title "coord Z, vector"
86	4932613 33922 0 173747 0 173.607003332025 1746 0 0 0 0
86	23208569 50691 173817 347421 173.690834279994 347.161962896608 1748 0 0 0 0
86	43479248 50663 347491 521134 347.231857669411 520.761962896608 1747 0 0 0 0
86	63799532 50516 521164 694785 520.785360583747 694.278448965604 1747 0 0 0 0
86	84102737 50924 694838 869415 694.328374965594 869.560816272101 1756 0 0 0 0
86	99537580 8851 869508 895882 869.660816272101 864000 306 0 0 0 0
vector 87 MobileNetwork.host[29] coordX:vector ETV
attr interpolationmode linear
attr source xCoord(mobilityPos(mobilityStateChanged))
attr title "coord X, vector"
87	4966535 58800 0 173769 0 173.62989712841 1746 63.344017922858 197.42360259408 258456.3496182 41275684.032776
87	23259260 73338 173817 347401 173.690834279994 347.143844594793 1746 99.314574861072 173.72298168036 232086.19843782 31788609.948991
87	43529911 73504 347491 521156 347.231857669411 520.7806050848 1749 99.314574861072 162.51060642036 239284.16075368 33926891.139696
87	63850048 73248 521164 694740 520.785360583747 694.23256907494 1745 74.884339720441 155.98524244745 222861.77236028 29692860.609729
87	84153661 74163 694838 869477 694.328374965594 869.625785242037 1756 17.371506134306 74.818971427023 58514.49320836 2468439.8228626
87	99546431 13058 869570 895882 869.725785242037 864000 305 34.747514367162 66.068905608013 15394.192990915 802290.09855732
vector 88 MobileNetwork.host[29] coordY:vector ETV
attr interpolationmode linear
attr source yCoord(mobilityPos(mobilityStateChanged))
attr title "coord Y, vector"
88	5025335 58855 0 173769 0 173.62989712841 1746 0.63867213763455 64.605440034513 45518.773902547 1791001.9779442
88	23332598 73415 173817 347401 173.690834279994 347.143844594793 1746 24.912007825721 101.11846010876 116451.83368274 8751490.8619524
88	43603415 73449 347491 521156 347.231857669411 520.7806050848 1749 31.366980264423 116.13307430663 158576.71105776 15325353.860524
88	63923296 72907 521164 694740 520.785360583747 694.23256907494 1745 6.861560249578 73.619351968306 53843.627606201 2440127.5505449
88	84227824 74162 694838 869477 694.328374965594 869.625785242037 1756 73.674440596159 168.28580979446 208201.76796454 25801249.278844
88	99559489 13061 869570 895882 869.725785242037 864000 305 168.2938658936 170.73278665012 51703.097643279 8764777.3727382
vector 89 MobileNetwork.host[29] coordZ:vector ETV
attr interpolationmode linear
attr source zCoord(mobilityPos(mobilityStateChanged))
attr title "coord Z, vector"
89	5084190 34542 0 173769 0 173.62989712841 1746 0 0 0 0
89	23406013 49065 173817 347401 173.690834279994 347.143844594793 1746 0 0 0 0
89	43676864 49103 347491 521156 347.231857669411 520.7806050848 1749 0 0 0 0
89	63996203 48976 521164 694740 520.785360583747 694.23256907494 1745 0 0 0 0
89	84301986 49735 694838 869477 694.328374965594 869.625785242037 1756 0 0 0 0
89	99572550 8822 869570 895882 869.725785242037 864000 305 0 0 0 0
vector 90 MobileNetwork.host[30] coordX:vector ETV
attr interpolationmode linear
attr source xCoord(mobilityPos(mobilityStateChanged))
attr title "coord X, vector"
90	5118732 72741 0 173723 0 173.595112957593 1751 30.145940896856 85.16527236898 106377.59987345 7039643.0782832
90	23455078 74867 173817 347456 173.690834279994 347.202987296842 1748 85.289485180344 128.21748038616 202443.34630696 23599725.237475
90	43725967 74033 347491 521068 347.231857669411 520.68999948002 1747 102.53101040388 108.8097591165 182458.23447059 19063076.622838
90	64045179 74773 521164 694756 520.785360583747 694.253694669646 1751 35.17099493857 108.87847071791 148112.28478875 13632280.643688
90	84351721 74767 694838 869449 694.328374965594 869.587982839166 1756 35.17099493857 129.6381935599 142569.87467092 13788594.710991
90	99581372 12802 869542 895882 869.687982839166 864000 306 129.6381935599 140.48860949419 41104.159313059 5525140.3271456
vector 91 MobileNetwork.host[30] coordY:vector ETV
attr interpolationmode linear
attr source yCoord(mobilityPos(mobilityStateChanged))
attr title "coord Y, vector"
91	5191473 72757 0 173723 0 173.595112957593 1751 9.1026047909806 168.23656512132 134333.67013985 15461199.596321
91	23529945 74869 173817 347456 173.690834279994 347.202987296842 1748 10.172882528004 161.12216241579 137609.13437618 14370815.418894
91	43800000 74035 347491 521068 347.231857669411 520.68999948002 1747 72.296009434752 179.86592544055 260660.02538182 40986575.481186
91	64119952 75014 521164 694756 520.785360583747 694.253694669646 1751 71.118816090802 167.03577983944 235494.69405731 33618081.93646
91	84426488 74815 694838 869449 694.328374965594 869.587982839166 1756 96.7300206301 165.67090887816 231944.35361129 31815571.067451
91	99594174 12757 869542 895882 869.687982839166 864000 306 96.7300206301 106.3044828661 30865.524741269 3116238.7764478
vector 92 MobileNetwork.host[30] coordZ:vector ETV
attr interpolationmode linear
attr source zCoord(mobilityPos(mobilityStateChanged))
attr title "coord Z, vector"
92	5264230 48380 0 173723 0 173.595112957593 1751 0 0 0 0
92	23604814 50572 173817 347456 173.690834279994 347.202987296842 1748 0 0 0 0
92	43874035 49706 347491 521068 347.231857669411 520.68999948002 1747 0 0 0 0
92	64194966 50641 521164 694756 520.785360583747 694.253694669646 1751 0 0 0 0
92	84501303 50924 694838 869449 694.328374965594 869.587982839166 1756 0 0 0 0
92	99606931 8590 869542 895882 869.687982839166 864000 306 0 0 0 0
vector 93 MobileNetwork.host[31] coordX:vector ETV
attr interpolationmode linear
attr source xCoord(mobilityPos(mobilityStateChanged))
attr title "coord X, vector"
93	5312610 63888 0 173793 0 173.657515612063 1748 93.834318162165 132.01282907226 184654.88012634 19751345.257601
93	23655386 74945 173817 347396 173.690834279994 347.138267854495 1747 121.63323727352 183.11297273753 285422.43336645 47161989.411705
93	43923741 74927 347491 521110 347.231857669411 520.738267854495 1747 97.793062123351 159.21858663779 224515.30127859 29403727.556504
93	64245607 74963 521164 694773 520.785360583747 694.265179983513 1747 87.640169502731 175.02987547493 219375.53830623 29225504.11358
93	84552227 75349 694838 869461 694.328374965594 869.601635947927 1756 138.05297619626 175.02987547493 269237.49089972 41599113.740815
93	99615521 13059 869554 895882 869.701635947927 864000 305 147.28225762601 151.96621288058 45637.771919029 6829437.8644869
vector 94 MobileNetwork.host[31] coordY:vector ETV
attr interpolationmode linear
attr source yCoord(mobilityPos(mobilityStateChanged))
attr title "coord Y, vector"
94	5376498 63885 0 173793 0 173.657515612063 1748 91.975511118549 125.77415702109 181030.99674944 18848141.52003
94	23730331 74951 173817 347396 173.690834279994 347.138267854495 1747 125.79314259471 174.35290883856 272949.48229264 42976560.623629
94	43998668 74928 347491 521110 347.231857669411 520.738267854495 1747 60.489566463504 142.46475230239 177301.45117166 18974069.339759
94	64320570 74952 521164 694773 520.785360583747 694.265179983513 1747 28.712859126811 60.467316938383 70443.78164983 2963579.3232118
94	84627576 75351 694838 869461 694.328374965594 869.601635947927 1756 28.712859126811 150.71647029504 150083.19100622 15580014.886054
94	99628580 13060 869554 895882 869.701635947927 864000 305 150.78962367122 172.95389990268 49382.150192558 8008050.2059949
vector 95 MobileNetwork.host[31] coordZ:vector ETV
attr interpolationmode linear
attr source zCoord(mobilityPos(mobilityStateChanged))
attr title "coord Z, vector"
95	5440383 39544 0 173793 0 173.657515612063 1748 0 0 0 0
95	23805282 50662 173817 347396 173.690834279994 347.138267854495 1747 0 0 0 0
95	44073596 50663 347491 521110 347.231857669411 520.738267854495 1747 0 0 0 0
95	64395522 50661 521164 694773 520.785360583747 694.265179983513 1747 0 0 0 0
95	84702927 50924 694838 869461 694.328374965594 869.601635947927 1756 0 0 0 0
95	99641640 8822 869554 895882 869.701635947927 864000 305 0 0 0 0
[...]
attr interpolationmode linear
attr source xCoord(mobilityPos(mobilityStateChanged))
attr title "coord X, vector"
276	16074682 62689 0 173724 0 173.596145816373 1746 110.8520304678 189.24772246694 288059.84898366 48671219.086561
276	36103232 76735 173817 347463 173.690834279994 347.210014712544 1748 1.9341469499619 173.27983829283 121105.55492634 13802113.884905
276	56429155 76663 347491 521069 347.231857669411 520.690363559198 1746 11.9145280241 84.977893217904 77248.395269609 4098506.390512
276	76739680 76671 521164 694799 520.785360583747 694.290363559198 1747 85.031699656448 183.30515952458 234368.47521193 32850146.891958
276	97078594 77134 694838 869423 694.328374965594 869.565672696968 1756 95.416767859808 186.23975262619 258185.5651849 39335620.626819
276	101570132 13409 869516 895882 869.665672696968 864000 306 73.215695835574 95.343820389003 25771.284074508 2183156.4962407
vector 277 MobileNetwork.host[92] coordY:vector ETV
attr interpolationmode linear
attr source yCoord(mobilityPos(mobilityStateChanged))
attr title "coord Y, vector"
277	16137371 62695 0 173724 0 173.596145816373 1746 184.93410200818 194.26812751684 333730.01122319 63794372.245045
277	36179967 76742 173817 347463 173.690834279994 347.210014712544 1748 129.56853295962 184.89533882583 265769.75460688 40931591.840211
277	56505818 76671 347491 521069 347.231857669411 520.690363559198 1746 142.18404439908 177.79490271751 286243.8771384 47154798.592134
277	76816351 76660 521164 694799 520.785360583747 694.290363559198 1747 73.110915861892 142.14624634789 188043.83008696 20935748.787982
277	97155728 76795 694838 869423 694.328374965594 869.565672696968 1756 18.78941037696 74.392543146057 79903.617644804 4369085.7712753
277	101583541 13404 869516 895882 869.665672696968 864000 306 74.486467356815 102.97774486512 27175.615016901 2434502.0715876
vector 278 MobileNetwork.host[92] coordZ:vector ETV
attr interpolationmode linear
attr source zCoord(mobilityPos(mobilityStateChanged))
attr title "coord Z, vector"
278	16200066 38381 0 173724 0 173.596145816373 1746 0 0 0 0
278	36256709 52439 173817 347463 173.690834279994 347.210014712544 1748 0 0 0 0
278	56582489 52380 347491 521069 347.231857669411 520.690363559198 1746 0 0 0 0
278	76893011 52408 521164 694799 520.785360583747 694.290363559198 1747 0 0 0 0
278	97232523 52680 694838 869423 694.328374965594 869.565672696968 1756 0 0 0 0
278	101596945 9157 869516 895882 869.665672696968 864000 306 0 0 0 0
vector 279 MobileNetwork.host[93] coordX:vector ETV
attr interpolationmode linear
attr source xCoord(mobilityPos(mobilityStateChanged))
attr title "coord X, vector"
279	16238447 72196 0 173779 0 173.644335190322 1749 25.230541456643 48.582577205284 65987.699289548 2597351.8660187
279	36309148 76784 173817 347394 173.690834279994 347.135239193787 1747 8.4394715904053 25.224851646854 28134.168256498 509134.00817409
279	56634869 76780 347491 521078 347.231857669411 520.702389850527 1748 13.216873582684 85.322811731706 104140.08090263 7182265.7692837
279	76945419 76670 521164 694811 520.785360583747 694.302389850527 1747 85.374046673451 192.52188713936 242722.58727471 35397219.639641
279	97285203 76551 694838 869472 694.328374965594 869.614277140204 1755 42.85882442992 193.93081359444 250217.36996584 40125307.988003
279	101606102 253 869565 895882 869.714277140204 864000 6 42.308802059809 42.732086183976 254.78551937986 10819.429622392
vector 280 MobileNetwork.host[93] coordY:vector ETV
attr interpolationmode linear
attr source yCoord(mobilityPos(mobilityStateChanged))
attr title "coord Y, vector"
280	16310643 72198 0 173779 0 173.644335190322 1749 106.94906960016 198.22135293591 265321.49981081 42150684.492147
280	36385932 76775 173817 347394 173.690834279994 347.135239193787 1747 125.9280032846 166.01318577796 275051.79967376 43517265.856664
280	56711649 76771 347491 521078 347.231857669411 520.702389850527 1748 151.72213508078 165.11675309379 273419.64139941 42802325.825908
280	77022089 76677 521164 694811 520.785360583747 694.302389850527 1747 143.97444467742 151.71843213405 258289.13802355 38196082.404093
280	97361754 76005 694838 869472 694.328374965594 869.614277140204 1755 91.342493531213 143.97328497335 221163.43494887 28409187.634184
280	101606355 254 869565 895882 869.714277140204 864000 6 91.151242044463 91.298424636414 547.23176926579 49910.453357758
vector 281 MobileNetwork.host[93] coordZ:vector ETV
attr interpolationmode linear
attr source zCoord(mobilityPos(mobilityStateChanged))
attr title "coord Z, vector"
281	16382841 47871 0 173779 0 173.644335190322 1749 0 0 0 0
281	36462707 52409 173817 347394 173.690834279994 347.135239193787 1747 0 0 0 0
281	56788420 52440 347491 521078 347.231857669411 520.702389850527 1748 0 0 0 0
281	77098766 52408 521164 694811 520.785360583747 694.302389850527 1747 0 0 0 0
281	97437759 52111 694838 869472 694.328374965594 869.614277140204 1755 0 0 0 0
281	101606609 170 869565 895882 869.714277140204 864000 6 0 0 0 0
vector 282 MobileNetwork.host[94] coordX:vector ETV
attr interpolationmode linear
attr source xCoord(mobilityPos(mobilityStateChanged))
attr title "coord X, vector"
282	16430712 59492 0 173815 0 173.689365502638 1746 29.83698170085 142.82781599335 125622.8312021 11484984.130847
282	36515116 76631 173817 347422 173.690834279994 347.162768302243 1748 29.83698170085 118.60541694891 160361.63337558 16490753.661929
282	56840860 76206 347491 521116 347.231857669411 520.74250628856 1747 56.127237993071 107.59409579576 152337.86137021 13561912.970206
282	77151174 76504 521164 694809 520.785360583747 694.301664990902 1748 26.549312557184 56.095331997831 60585.391065107 2205047.2476638
282	97489870 68644 694838 851162 694.328374965594 850.553504726059 1564 51.459606552401 161.93299207634 166884.85865265 19401453.421836
282	101606779 34 895882 895882 864000 864000 1 161.93299207634 161.93299207634 161.93299207634 26222.293922796
vector 283 MobileNetwork.host[94] coordY:vector ETV
attr interpolationmode linear
attr source yCoord(mobilityPos(mobilityStateChanged))
attr title "coord Y, vector"
283	16490204 59936 0 173815 0 173.689365502638 1746 8.4843122021948 155.55880839096 110520.61377266 11141060.28206
283	36591747 77719 173817 347422 173.690834279994 347.162768302243 1748 0.014344712863212 40.910765388628 14110.439170134 296938.05989495
283	56917066 76203 347491 521116 347.231857669411 520.74250628856 1747 40.969876430969 150.72051249797 191523.90850822 23239581.266578
283	77227678 76512 521164 694809 520.785360583747 694.301664990902 1748 62.350137495184 152.96865821574 170386.99011191 18812985.311331
283	97558514 68643 694838 851162 694.328374965594 850.553504726059 1564 70.031607181821 104.09776321535 136172.82070754 12007752.229821
283	101606813 34 895882 895882 864000 864000 1 104.09776321535 104.09776321535 104.09776321535 10836.344306439
vector 284 MobileNetwork.host[94] coordZ:vector ETV
attr interpolationmode linear
attr source zCoord(mobilityPos(mobilityStateChanged))
attr title "coord Z, vector"
284	16550140 35636 0 173815 0 173.689365502638 1746 0 0 0 0
284	36669466 52439 173817 347422 173.690834279994 347.162768302243 1748 0 0 0 0
284	56993269 51924 347491 521116 347.231857669411 520.74250628856 1747 0 0 0 0
284	77304190 52192 521164 694809 520.785360583747 694.301664990902 1748 0 0 0 0
284	97627157 46920 694838 851162 694.328374965594 850.553504726059 1564 0 0 0 0
284	101606847 20 895882 895882 864000 864000 1 0 0 0 0
vector 285 MobileNetwork.host[95] coordX:vector ETV
attr interpolationmode linear
attr source xCoord(mobilityPos(mobilityStateChanged))
attr title "coord X, vector"
285	16585776 64924 0 173783 0 173.648314365796 1747 106.89987283533 168.0994588334 252050.46280748 37032169.735134
285	36721905 76749 173817 347447 173.690834279994 347.19230746898 1747 74.975080004618 177.18360257442 225171.43930415 31801340.31056
285	57045193 75086 347491 521158 347.231857669411 520.781182279121 1747 112.17615270051 177.12714687598 248454.42184612 36031106.238262
285	77356382 76631 521164 694780 520.785360583747 694.269598930808 1746 112.17615270051 142.06921533206 221407.07945937 28211699.879206
285	97674077 77095 694838 869473 694.328374965594 869.614367417333 1755 142.07956277428 158.13372241003 268344.07544071 41079710.358584
285	101606867 13364 869566 895882 869.714367417333 864000 305 124.13511777134 142.96399840747 40721.851989529 5446085.5897217
vector 286 MobileNetwork.host[95] coordY:vector ETV
attr interpolationmode linear
attr source yCoord(mobilityPos(mobilityStateChanged))
attr title "coord Y, vector"
286	16650700 65273 0 173783 0 173.648314365796 1747 43.442707527425 145.36684198908 191044.51353709 22365534.691729
286	36798654 76741 173817 347447 173.690834279994 347.19230746898 1747 135.19137215937 157.72960713482 254054.7218061 37071180.598544
286	57120279 74951 347491 521158 347.231857669411 520.781182279121 1747 11.89194810439 135.16100569133 120380.95862136 10803784.033724
286	77433013 76582 521164 694780 520.785360583747 694.269598930808 1746 11.89194810439 104.91239363446 100261.43191156 7069150.8010279
286	97751172 77083 694838 869473 694.328374965594 869.614367417333 1755 104.94459253282 157.0670807688 249283.74423132 35880266.076622
286	101620231 13366 869566 895882 869.714367417333 864000 305 157.07599260755 159.77499934857 48321.319117241 7655761.1296571
vector 287 MobileNetwork.host[95] coordZ:vector ETV
attr interpolationmode linear
attr source zCoord(mobilityPos(mobilityStateChanged))
attr title "coord Z, vector"
287	16715973 40972 0 173783 0 173.648314365796 1747 0 0 0 0
287	36875395 52407 173817 347447 173.690834279994 347.19230746898 1747 0 0 0 0
287	57195230 50805 347491 521158 347.231857669411 520.781182279121 1747 0 0 0 0
287	77509595 52378 521164 694780 520.785360583747 694.269598930808 1746 0 0 0 0
287	97828255 52650 694838 869473 694.328374965594 869.614367417333 1755 0 0 0 0
287	101633597 9127 869566 895882 869.714367417333 864000 305 0 0 0 0
vector 288 MobileNetwork.host[96] coordX:vector ETV
attr interpolationmode linear
attr source xCoord(mobilityPos(mobilityStateChanged))
attr title "coord X, vector"
288	16756945 69587 0 173754 0 173.613852565241 1747 32.912275907246 108.72043396082 118534.35167402 9377976.2000685
288	36927802 76256 173817 347430 173.690834279994 347.17175754258 1748 41.701256803357 82.998101563318 96576.051149528 5620098.0001706
288	57246035 75143 347491 521151 347.231857669411 520.774227170982 1748 74.73947177655 176.57984033018 227019.3974703 31215852.36841
288	77561973 76498 521164 694753 520.785360583747 694.249497758216 1748 175.36323613361 179.89986297084 311214.79527926 55411953.574777
288	97880905 77082 694838 869431 694.328374965594 869.571392602917 1756 127.28758117944 175.34255194542 262374.02745462 39679401.520024
288	101642724 13405 869524 895882 869.671392602917 864000 306 129.29654890878 133.35849514453 40189.701310172 5278899.0487859
vector 289 MobileNetwork.host[96] coordY:vector ETV
attr interpolationmode linear
attr source yCoord(mobilityPos(mobilityStateChanged))
attr title "coord Y, vector"
289	16826532 69577 0 173754 0 173.613852565241 1747 34.326103284015 87.482051923316 91854.614707497 5055148.7495659
289	37004058 76248 173817 347430 173.690834279994 347.17175754258 1748 87.572784430535 176.16290656556 272062.48197915 43598946.133619
289	57321178 75142 347491 521151 347.231857669411 520.774227170982 1748 176.16652109967 185.74365524509 317002.22750058 57504111.211602
289	77638471 76507 521164 694753 520.785360583747 694.249497758216 1748 71.405705787949 185.74365524509 223878.69996469 32501065.97482
289	97957987 77100 694838 869431 694.328374965594 869.571392602917 1756 80.616454099514 132.63836068337 205990.2404279 24647078.908632
289	101656129 13409 869524 895882 869.671392602917 864000 306 101.48586729852 121.66962221758 34125.499960466 3816289.7983301
vector 290 MobileNetwork.host[96] coordZ:vector ETV
attr interpolationmode linear
attr source zCoord(mobilityPos(mobilityStateChanged))
attr title "coord Z, vector"
290	16896109 45267 0 173754 0 173.613852565241 1747 0 0 0 0
290	37080306 51922 173817 347430 173.690834279994 347.17175754258 1748 0 0 0 0
290	57396320 50847 347491 521151 347.231857669411 520.774227170982 1748 0 0 0 0
290	77714978 52139 521164 694753 520.785360583747 694.249497758216 1748 0 0 0 0
290	98035087 52680 694838 869431 694.328374965594 869.571392602917 1756 0 0 0 0
290	101669538 9157 869524 895882 869.671392602917 864000 306 0 0 0 0
vector 291 MobileNetwork.host[97] coordX:vector ETV
attr interpolationmode linear
attr source xCoord(mobilityPos(mobilityStateChanged))
attr title "coord X, vector"
291	16941376 70100 0 173811 0 173.68575972571 1748 8.6336337055569 54.811499495806 55422.68850539 2295632.1870216
291	37132228 75235 173817 347482 173.690834279994 347.225212698005 1748 21.516366558082 78.650985901274 87564.83451077 4893777.4585784
291	57447167 76435 347491 521146 347.231857669411 520.773144547358 1748 46.395808577428 122.10489151467 170198.30364644 17381288.123639
291	77767117 75644 521164 694818 520.785360583747 694.31074663313 1747 32.524475344046 122.46634881012 106884.96060313 8058534.6143746
291	98087767 76697 694838 869495 694.328374965594 869.645582395179 1756 18.502478381317 155.18273167705 185575.46457802 22904925.75058
291	101678695 13432 869588 895882 869.745582395179 864000 306 18.502478381317 27.855981761823 6115.2739761203 124439.1102876
vector 292 MobileNetwork.host[97] coordY:vector ETV
attr interpolationmode linear
attr source yCoord(mobilityPos(mobilityStateChanged))
attr title "coord Y, vector"
292	17011476 70094 0 173811 0 173.68575972571 1748 65.150748861978 190.76022130444 226125.52807447 33448506.650306
292	37207463 75731 173817 347482 173.690834279994 347.225212698005 1748 129.97770951446 173.66159817192 258302.84013943 38509224.781616
292	57523602 76427 347491 521146 347.231857669411 520.773144547358 1748 73.720132236753 129.97607750973 189079.95431246 20863985.527128
292	77842761 75628 521164 694818 520.785360583747 694.31074663313 1747 66.325436461785 73.713670401642 120398.02529058 8307935.4255456
292	98164464 76710 694838 869495 694.328374965594 869.645582395179 1756 61.108777329456 76.337652693285 124556.36749111 8877190.6716627
292	101692127 13433 869588 895882 869.745582395179 864000 306 61.108777329456 65.901345767555 18931.659169508 1171852.0048935
vector 293 MobileNetwork.host[97] coordZ:vector ETV
attr interpolationmode linear
attr source zCoord(mobilityPos(mobilityStateChanged))
attr title "coord Z, vector"
293	17081570 45760 0 173811 0 173.68575972571 1748 0 0 0 0
293	37283194 51380 173817 347482 173.690834279994 347.225212698005 1748 0 0 0 0
293	57600029 52114 347491 521146 347.231857669411 520.773144547358 1748 0 0 0 0
293	77918389 51323 521164 694818 520.785360583747 694.31074663313 1747 0 0 0 0
293	98241174 52286 694838 869495 694.328374965594 869.645582395179 1756 0 0 0 0
293	101705560 9157 869588 895882 869.745582395179 864000 306 0 0 0 0
vector 294 MobileNetwork.host[98] coordX:vector ETV
attr interpolationmode linear
attr source xCoord(mobilityPos(mobilityStateChanged))
attr title "coord X, vector"
294	17127330 72143 0 173817 0 173.690834279994 1747 1.4629306541708 69.203325043263 54761.258358938 2514866.0283804
294	37334574 76592 173918 347469 173.790834279994 347.214048654181 1748 69.247570891983 176.41222808383 211624.92114584 27907672.36578
294	57652143 76532 347491 521136 347.231857669411 520.763148010301 1747 113.30083197031 180.10752006756 258492.03159883 39316064.391492
294	77969712 76681 521164 694786 520.785360583747 694.280167570075 1747 92.613698490006 179.10974351011 248249.32253367 36258126.93078
294	98293460 77049 694838 869457 694.328374965594 869.595074726923 1755 19.185438005163 92.57402437913 75401.690881584 4047642.0473334
294	101714717 13410 869550 895882 869.695074726923 864000 306 51.804613432838 69.810472700692 18624.669227704 1142015.1974476
vector 295 MobileNetwork.host[98] coordY:vector ETV
attr interpolationmode linear
attr source yCoord(mobilityPos(mobilityStateChanged))
attr title "coord Y, vector"
295	17199473 72139 0 173817 0 173.690834279994 1747 62.304193515417 125.80522720574 170843.36333206 17408716.77563
295	37411166 76573 173918 347469 173.790834279994 347.214048654181 1748 44.247890835485 89.1976101141 105599.48158298 6641783.1628855
295	57728675 76528 347491 521136 347.231857669411 520.763148010301 1747 89.21087345496 131.3623720957 188990.18320062 20662650.123649
295	78046393 76675 521164 694786 520.785360583747 694.280167570075 1747 107.39303294227 197.66041928048 276068.973698 44706508.472091
295	98370509 76748 694838 869457 694.328374965594 869.595074726923 1755 30.76320373116 107.35162898799 103064.78557002 6965852.4908956
295	101728127 13406 869550 895882 869.695074726923 864000 306 84.967313651579 114.88810601281 30607.060848982 3084679.2231985
vector 296 MobileNetwork.host[98] coordZ:vector ETV
attr interpolationmode linear
attr source zCoord(mobilityPos(mobilityStateChanged))
attr title "coord Z, vector"
296	17271612 47825 0 173717 0 173.590834279994 1746 0 0 0 0
296	37487739 52297 173817 347469 173.690834279994 347.214048654181 1749 0 0 0 0
296	57805203 52223 347491 521136 347.231857669411 520.763148010301 1747 0 0 0 0
296	78123068 52408 521164 694786 520.785360583747 694.280167570075 1747 0 0 0 0
296	98447257 52650 694838 869457 694.328374965594 869.595074726923 1755 0 0 0 0
296	101741533 9157 869550 895882 869.695074726923 864000 306 0 0 0 0
vector 297 MobileNetwork.host[99] coordX:vector ETV
attr interpolationmode linear
attr source xCoord(mobilityPos(mobilityStateChanged))
attr title "coord X, vector"
297	17319437 73232 0 173804 0 173.67195579115 1752 121.45783869604 171.93285269492 265342.9732509 40795649.737602
297	37540036 74935 173817 347446 173.690834279994 347.19143771253 1747 121.45783869604 164.25689525262 245753.79034647 34883815.357865
297	57857426 75628 347491 521149 347.231857669411 520.773740308941 1748 164.26799882143 195.43363623539 310812.86121351 55428137.268327
297	78175476 76745 521164 694837 520.785360583747 694.328115568709 1748 155.12358546086 176.77304449651 300532.55481167 51700299.285717
297	98499907 77024 694838 869475 694.328374965594 869.623424541805 1755 68.377281047602 155.12325896073 178286.2536089 18945287.928489
297	101750690 13366 869568 895882 869.723424541805 864000 305 123.26373585483 139.33505007729 40056.22806687 5267321.0717922
vector 298 MobileNetwork.host[99] coordY:vector ETV
attr interpolationmode linear
attr source yCoord(mobilityPos(mobilityStateChanged))
attr title "coord Y, vector"
298	17392669 72779 0 173804 0 173.67195579115 1752 113.41997019947 148.63667296219 224724.47578484 29094618.013309
298	37614971 74954 173817 347446 173.690834279994 347.19143771253 1747 68.149502049904 148.63667296219 196542.84508084 23219209.603072
298	57933054 75630 347491 521149 347.231857669411 520.773740308941 1748 9.5190582537429 68.128620869045 53077.095529964 2177933.901824
298	78252221 76724 521164 694837 520.785360583747 694.328115568709 1748 15.944567499057 169.73995779705 189396.68811889 25328752.061269
298	98576931 77036 694838 869475 694.328374965594 869.623424541805 1755 75.539095759285 157.6443677681 190943.15268127 21705279.931934
298	101764056 13363 869568 895882 869.723424541805 864000 305 65.646602049935 75.506529567869 21519.770707305 1520869.4645275
vector 299 MobileNetwork.host[99] coordZ:vector ETV
attr interpolationmode linear
attr source zCoord(mobilityPos(mobilityStateChanged))
attr title "coord Z, vector"
299	17465448 48768 0 173804 0 173.67195579115 1752 0 0 0 0
299	37689925 50673 173817 347446 173.690834279994 347.19143771253 1747 0 0 0 0
299	58008684 51306 347491 521149 347.231857669411 520.773740308941 1748 0 0 0 0
299	78328945 52438 521164 694837 520.785360583747 694.328115568709 1748 0 0 0 0
299	98653967 52650 694838 869475 694.328374965594 869.623424541805 1755 0 0 0 0
299	101777419 9128 869568 895882 869.723424541805 864000 305 0 0 0 0
