version 2
run LinearMobility1-0-20210422-17:46:31-27453
attr configname LinearMobility1
attr datetime 20210422-17:46:31
attr experiment LinearMobility1
attr inifile omnetpp.ini
attr iterationvars ""
attr iterationvarsf ""
attr measurement ""
attr network MobileNetwork
attr processid 27453
attr repetition 0
attr replication #0
attr resultdir results
attr runnumber 0
attr seedset 0
param **.updateInterval 1s
param **.host*.mobility.typename "\"LinearMobility\""
param **.host*.mobility.initFromDisplayString false
param **.host*.mobility.speed 50mps
param **.host*.mobility.angle 30deg
param *.numHosts 2
param **.constraintAreaMinX 0m
param **.constraintAreaMinY 0m
param **.constraintAreaMinZ 0m
param **.constraintAreaMaxX 600m
param **.constraintAreaMaxY 400m
param **.constraintAreaMaxZ 0m
param **.updateInterval 0.1s
param **.mobility.initFromDisplayString false

vector 0 MobileNetwork.host[0] coordX:vector ETV
attr interpolationmode linear
attr source xCoord(mobilityPos(mobilityStateChanged))
attr title "coord X, vector"
vector 1 MobileNetwork.host[0] coordY:vector ETV
attr interpolationmode linear
attr source yCoord(mobilityPos(mobilityStateChanged))
attr title "coord Y, vector"
vector 2 MobileNetwork.host[0] coordZ:vector ETV
attr interpolationmode linear
attr source zCoord(mobilityPos(mobilityStateChanged))
attr title "coord Z, vector"
vector 3 MobileNetwork.host[1] coordX:vector ETV
attr interpolationmode linear
attr source xCoord(mobilityPos(mobilityStateChanged))
attr title "coord X, vector"
vector 4 MobileNetwork.host[1] coordY:vector ETV
attr interpolationmode linear
attr source yCoord(mobilityPos(mobilityStateChanged))
attr title "coord Y, vector"
vector 5 MobileNetwork.host[1] coordZ:vector ETV
attr interpolationmode linear
attr source zCoord(mobilityPos(mobilityStateChanged))
attr title "coord Z, vector"
0	0	0	329.28810138255
0	1	1	357.20118646379
0	3	2	385.11427154503
0	5	3	413.02735662628
0	7	4	440.94044170752
0	9	5	468.85352678876
0	11	6	496.76661187
0	13	7	524.67969695124
0	15	8	552.59278203248
0	17	9	580.50586711372
0	19	10	591.58104780504
0	21	11	563.6679627238
0	23	12	535.75487764256
0	25	13	507.84179256132
0	27	14	479.92870748008
0	29	15	452.01562239884
0	31	16	424.10253731759
0	33	17	396.18945223635
0	35	18	368.27636715511
0	37	19	340.36328207387
0	39	20	312.45019699263
0	41	21	284.53711191139
0	43	22	256.62402683015
0	45	23	228.71094174891
0	47	24	200.79785666767
0	49	25	172.88477158643
0	51	26	144.97168650519
0	53	27	117.05860142395
0	55	28	89.145516342707
0	57	29	61.232431261466
0	59	30	33.319346180225
0	61	31	5.4062610989845
0	63	32	22.506823982256
0	65	33	50.419909063497
0	67	34	78.332994144738
0	69	35	106.24607922598
0	71	36	134.15916430722
0	73	37	162.07224938846
0	75	38	189.9853344697
0	77	39	217.89841955094
0	79	40	245.81150463218
0	81	41	273.72458971342
0	83	42	301.63767479466
0	85	43	329.5507598759
0	87	44	357.46384495714
0	89	45	385.37693003839
0	91	46	413.29001511963
0	93	47	441.20310020087
0	95	48	469.11618528211
0	97	49	497.02927036335
0	99	50	524.94235544459
0	101	51	552.85544052583
0	103	52	580.76852560707
0	105	53	591.31838931169
0	107	54	563.40530423045
0	109	55	535.49221914921
0	111	56	507.57913406797
0	113	57	479.66604898673
0	115	58	451.75296390549
0	117	59	423.83987882424
0	119	60	395.926793743
0	121	61	368.01370866176
0	123	62	340.10062358052
0	125	63	312.18753849928
0	127	64	284.27445341804
0	129	65	256.3613683368
0	131	66	228.44828325556
0	133	67	200.53519817432
0	135	68	172.62211309308
0	137	69	144.70902801184
0	139	70	116.7959429306
0	141	71	88.882857849356
0	143	72	60.969772768116
0	145	73	33.056687686875
0	147	74	5.1436026056341
0	149	75	22.769482475607
0	151	76	50.682567556847
0	153	77	78.595652638088
0	155	78	106.50873771933
0	157	79	134.42182280057
0	159	80	162.33490788181
0	161	81	190.24799296305
0	163	82	218.16107804429
0	165	83	246.07416312553
0	167	84	273.98724820677
0	169	85	301.90033328801
0	171	86	329.81341836925
0	173	87	357.7265034505
0	175	88	385.63958853174
0	177	89	413.55267361298
0	179	90	441.46575869422
0	181	91	469.37884377546
0	183	92	497.2919288567
0	185	93	525.20501393794
0	187	94	553.11809901918
0	189	95	581.03118410042
0	191	96	591.05573081834
0	193	97	563.1426457371
0	195	98	535.22956065586
0	197	99	507.31647557462
0	199	100	479.40339049338
0	201	101	451.49030541213
0	203	102	423.57722033089
0	205	103	395.66413524965
0	207	104	367.75105016841
0	209	105	339.83796508717
0	211	106	311.92488000593
0	213	107	284.01179492469
0	215	108	256.09870984345
0	217	109	228.18562476221
0	219	110	200.27253968097
0	221	111	172.35945459973
0	223	112	144.44636951849
0	225	113	116.53328443725
0	227	114	88.620199356006
0	229	115	60.707114274765
0	231	116	32.794029193524
0	233	117	4.8809441122837
0	235	118	23.032140968957
0	237	119	50.945226050198
0	239	120	78.858311131438
0	241	121	106.77139621268
0	243	122	134.68448129392
0	245	123	162.59756637516
0	247	124	190.5106514564
0	249	125	218.42373653764
0	251	126	246.33682161888
0	253	127	274.24990670012
0	255	128	302.16299178136
0	257	129	330.0760768626
0	259	130	357.98916194385
0	261	131	385.90224702509
0	263	132	413.81533210633
0	265	133	441.72841718757
0	267	134	469.64150226881
0	269	135	497.55458735005
0	271	136	525.46767243129
0	273	137	553.38075751253
0	275	138	581.29384259377
0	277	139	590.79307232499
0	279	140	562.87998724375
0	281	141	534.96690216251
0	283	142	507.05381708127
0	285	143	479.14073200003
0	287	144	451.22764691878
0	289	145	423.31456183754
0	291	146	395.4014767563
0	293	147	367.48839167506
0	295	148	339.57530659382
0	297	149	311.66222151258
0	299	150	283.74913643134
0	301	151	255.8360513501
0	303	152	227.92296626886
0	305	153	200.00988118762
1	0	0	237.13784655556
1	1	1	195.65460076588
1	3	2	154.17135497619
1	5	3	112.68810918651
1	7	4	71.204863396821
1	9	5	29.721617607136
1	11	6	11.761628182549
1	13	7	53.244873972234
1	15	8	94.728119761919
1	17	9	136.2113655516
1	19	10	177.69461134129
1	21	11	219.17785713097
1	23	12	260.66110292066
1	25	13	302.14434871034
1	27	14	343.62759450003
1	29	15	385.11084028971
1	31	16	373.4059139206
1	33	17	331.92266813092
1	35	18	290.43942234123
1	37	19	248.95617655155
1	39	20	207.47293076186
1	41	21	165.98968497218
1	43	22	124.50643918249
1	45	23	83.023193392806
1	47	24	41.539947603121
1	49	25	0.056701813436106
1	51	26	41.426543976249
1	53	27	82.909789765934
1	55	28	124.39303555562
1	57	29	165.8762813453
1	59	30	207.35952713499
1	61	31	248.84277292467
1	63	32	290.32601871436
1	65	33	331.80926450404
1	67	34	373.29251029373
1	69	35	385.22424391659
1	71	36	343.7409981269
1	73	37	302.25775233722
1	75	38	260.77450654753
1	77	39	219.29126075785
1	79	40	177.80801496816
1	81	41	136.32476917848
1	83	42	94.841523388791
1	85	43	53.358277599106
1	87	44	11.875031809421
1	89	45	29.608213980264
1	91	46	71.091459769949
1	93	47	112.57470555963
1	95	48	154.05795134932
1	97	49	195.541197139
1	99	50	237.02444292869
1	101	51	278.50768871837
1	103	52	319.99093450806
1	105	53	361.47418029774
1	107	54	397.04257391257
1	109	55	355.55932812289
1	111	56	314.0760823332
1	113	57	272.59283654352
1	115	58	231.10959075383
1	117	59	189.62634496415
1	119	60	148.14309917446
1	121	61	106.65985338478
1	123	62	65.176607595092
1	125	63	23.693361805407
1	127	64	17.789883984278
1	129	65	59.273129773963
1	131	66	100.75637556365
1	133	67	142.23962135333
1	135	68	183.72286714302
1	137	69	225.2061129327
1	139	70	266.68935872239
1	141	71	308.17260451207
1	143	72	349.65585030176
1	145	73	391.13909609144
1	147	74	367.37765811887
1	149	75	325.89441232919
1	151	76	284.4111665395
1	153	77	242.92792074982
1	155	78	201.44467496013
1	157	79	159.96142917045
1	159	80	118.47818338076
1	161	81	76.994937591077
1	163	82	35.511691801392
1	165	83	5.9715539882933
1	167	84	47.454799777978
1	169	85	88.938045567663
1	171	86	130.42129135735
1	173	87	171.90453714703
1	175	88	213.38778293672
1	177	89	254.8710287264
1	179	90	296.35427451609
1	181	91	337.83752030577
1	183	92	379.32076609546
1	185	93	379.19598811486
1	187	94	337.71274232517
1	189	95	296.22949653549
1	191	96	254.7462507458
1	193	97	213.26300495612
1	195	98	171.77975916643
1	197	99	130.29651337675
1	199	100	88.813267587062
1	201	101	47.330021797377
1	203	102	5.846776007692
1	205	103	35.636469781993
1	207	104	77.119715571678
1	209	105	118.60296136136
1	211	106	160.08620715105
1	213	107	201.56945294073
1	215	108	243.05269873042
1	217	109	284.5359445201
1	219	110	326.01919030979
1	221	111	367.50243609947
1	223	112	391.01431811084
1	225	113	349.53107232116
1	227	114	308.04782653147
1	229	115	266.56458074179
1	231	116	225.0813349521
1	233	117	183.59808916242
1	235	118	142.11484337273
1	237	119	100.63159758305
1	239	120	59.148351793362
1	241	121	17.665106003677
1	243	122	23.818139786008
1	245	123	65.301385575693
1	247	124	106.78463136538
1	249	125	148.26787715506
1	251	126	189.75112294475
1	253	127	231.23436873443
1	255	128	272.71761452412
1	257	129	314.2008603138
1	259	130	355.68410610349
1	261	131	397.16735189317
1	263	132	361.34940231714
1	265	133	319.86615652746
1	267	134	278.38291073777
1	269	135	236.89966494809
1	271	136	195.4164191584
1	273	137	153.93317336872
1	275	138	112.44992757903
1	277	139	70.966681789347
1	279	140	29.483435999662
1	281	141	11.999809790023
1	283	142	53.483055579708
1	285	143	94.966301369393
1	287	144	136.44954715908
1	289	145	177.93279294876
1	291	146	219.41603873845
1	293	147	260.89928452813
1	295	148	302.38253031782
1	297	149	343.8657761075
1	299	150	385.34902189719
1	301	151	373.16773231313
1	303	152	331.68448652344
1	305	153	290.20124073376
2	0	0	0
2	1	1	0
2	3	2	0
2	5	3	0
2	7	4	0
2	9	5	0
2	11	6	0
2	13	7	0
2	15	8	0
2	17	9	0
2	19	10	0
2	21	11	0
2	23	12	0
2	25	13	0
2	27	14	0
2	29	15	0
2	31	16	0
2	33	17	0
2	35	18	0
2	37	19	0
2	39	20	0
2	41	21	0
2	43	22	0
2	45	23	0
2	47	24	0
2	49	25	0
2	51	26	0
2	53	27	0
2	55	28	0
2	57	29	0
2	59	30	0
2	61	31	0
2	63	32	0
2	65	33	0
2	67	34	0
2	69	35	0
2	71	36	0
2	73	37	0
2	75	38	0
2	77	39	0
2	79	40	0
2	81	41	0
2	83	42	0
2	85	43	0
2	87	44	0
2	89	45	0
2	91	46	0
2	93	47	0
2	95	48	0
2	97	49	0
2	99	50	0
2	101	51	0
2	103	52	0
2	105	53	0
2	107	54	0
2	109	55	0
2	111	56	0
2	113	57	0
2	115	58	0
2	117	59	0
2	119	60	0
2	121	61	0
2	123	62	0
2	125	63	0
2	127	64	0
2	129	65	0
2	131	66	0
2	133	67	0
2	135	68	0
2	137	69	0
2	139	70	0
2	141	71	0
2	143	72	0
2	145	73	0
2	147	74	0
2	149	75	0
2	151	76	0
2	153	77	0
2	155	78	0
2	157	79	0
2	159	80	0
2	161	81	0
2	163	82	0
2	165	83	0
2	167	84	0
2	169	85	0
2	171	86	0
2	173	87	0
2	175	88	0
2	177	89	0
2	179	90	0
2	181	91	0
2	183	92	0
2	185	93	0
2	187	94	0
2	189	95	0
2	191	96	0
2	193	97	0
2	195	98	0
2	197	99	0
2	199	100	0
2	201	101	0
2	203	102	0
2	205	103	0
2	207	104	0
2	209	105	0
2	211	106	0
2	213	107	0
2	215	108	0
2	217	109	0
2	219	110	0
2	221	111	0
2	223	112	0
2	225	113	0
2	227	114	0
2	229	115	0
2	231	116	0
2	233	117	0
2	235	118	0
2	237	119	0
2	239	120	0
2	241	121	0
2	243	122	0
2	245	123	0
2	247	124	0
2	249	125	0
2	251	126	0
2	253	127	0
2	255	128	0
2	257	129	0
2	259	130	0
2	261	131	0
2	263	132	0
2	265	133	0
2	267	134	0
2	269	135	0
2	271	136	0
2	273	137	0
2	275	138	0
2	277	139	0
2	279	140	0
2	281	141	0
2	283	142	0
2	285	143	0
2	287	144	0
2	289	145	0
2	291	146	0
2	293	147	0
2	295	148	0
2	297	149	0
2	299	150	0
2	301	151	0
2	303	152	0
2	305	153	0
3	0	0	361.65802222677
3	1	1	390.34443907439
3	3	2	419.03085592201
3	5	3	447.71727276964
3	7	4	476.40368961726
3	9	5	505.09010646489
3	11	6	533.77652331251
3	13	7	562.46294016014
3	15	8	591.14935700776
3	17	9	580.16422614461
3	19	10	551.47780929699
3	21	11	522.79139244937
3	23	12	494.10497560174
3	25	13	465.41855875412
3	27	14	436.73214190649
3	29	15	408.04572505887
3	31	16	379.35930821124
3	33	17	350.67289136362
3	35	18	321.986474516
3	37	19	293.30005766837
3	39	20	264.61364082075
3	41	21	235.92722397312
3	43	22	207.2408071255
3	45	23	178.55439027787
3	47	24	149.86797343025
3	49	25	121.18155658262
3	51	26	92.495139735
3	53	27	63.808722887375
3	55	28	35.122306039751
3	57	29	6.4358891921266
3	59	30	22.250527655498
3	61	31	50.936944503122
3	63	32	79.623361350747
3	65	33	108.30977819837
3	67	34	136.996195046
3	69	35	165.68261189362
3	71	36	194.36902874124
3	73	37	223.05544558887
3	75	38	251.74186243649
3	77	39	280.42827928412
3	79	40	309.11469613174
3	81	41	337.80111297937
3	83	42	366.48752982699
3	85	43	395.17394667462
3	87	44	423.86036352224
3	89	45	452.54678036986
3	91	46	481.23319721749
3	93	47	509.91961406511
3	95	48	538.60603091274
3	97	49	567.29244776036
3	99	50	595.97886460799
3	101	51	575.33471854439
3	103	52	546.64830169677
3	105	53	517.96188484914
3	107	54	489.27546800152
3	109	55	460.58905115389
3	111	56	431.90263430627
3	113	57	403.21621745864
3	115	58	374.52980061102
3	117	59	345.84338376339
3	119	60	317.15696691577
3	121	61	288.47055006815
3	123	62	259.78413322052
3	125	63	231.0977163729
3	127	64	202.41129952527
3	129	65	173.72488267765
3	131	66	145.03846583002
3	133	67	116.3520489824
3	135	68	87.665632134775
3	137	69	58.97921528715
3	139	70	30.292798439526
3	141	71	1.6063815919015
3	143	72	27.080035255723
3	145	73	55.766452103347
3	147	74	84.452868950972
3	149	75	113.1392857986
3	151	76	141.82570264622
3	153	77	170.51211949384
3	155	78	199.19853634147
3	157	79	227.88495318909
3	159	80	256.57137003672
3	161	81	285.25778688434
3	163	82	313.94420373197
3	165	83	342.63062057959
3	167	84	371.31703742722
3	169	85	400.00345427484
3	171	86	428.68987112246
3	173	87	457.37628797009
3	175	88	486.06270481771
3	177	89	514.74912166534
3	179	90	543.43553851296
3	181	91	572.12195536059
3	183	92	599.19162779179
3	185	93	570.50521094416
3	187	94	541.81879409654
3	189	95	513.13237724892
3	191	96	484.44596040129
3	193	97	455.75954355367
3	195	98	427.07312670604
3	197	99	398.38670985842
3	199	100	369.70029301079
3	201	101	341.01387616317
3	203	102	312.32745931554
3	205	103	283.64104246792
3	207	104	254.9546256203
3	209	105	226.26820877267
3	211	106	197.58179192505
3	213	107	168.89537507742
3	215	108	140.2089582298
3	217	109	111.52254138217
3	219	110	82.83612453455
3	221	111	54.149707686925
3	223	112	25.463290839301
3	225	113	3.2231260083235
3	227	114	31.909542855948
3	229	115	60.595959703572
3	231	116	89.282376551197
3	233	117	117.96879339882
3	235	118	146.65521024645
3	237	119	175.34162709407
3	239	120	204.02804394169
3	241	121	232.71446078932
3	243	122	261.40087763694
3	245	123	290.08729448457
3	247	124	318.77371133219
3	249	125	347.46012817982
3	251	126	376.14654502744
3	253	127	404.83296187507
3	255	128	433.51937872269
3	257	129	462.20579557031
3	259	130	490.89221241794
3	261	131	519.57862926556
3	263	132	548.26504611319
3	265	133	576.95146296081
3	267	134	594.36212019156
3	269	135	565.67570334394
3	271	136	536.98928649632
3	273	137	508.30286964869
3	275	138	479.61645280107
3	277	139	450.93003595344
3	279	140	422.24361910582
3	281	141	393.55720225819
3	283	142	364.87078541057
3	285	143	336.18436856294
3	287	144	307.49795171532
3	289	145	278.8115348677
3	291	146	250.12511802007
3	293	147	221.43870117245
3	295	148	192.75228432482
3	297	149	164.0658674772
3	299	150	135.37945062957
3	301	151	106.69303378195
3	303	152	78.006616934325
4	0	0	343.1782479398
4	1	1	302.22596487225
4	3	2	261.27368180471
4	5	3	220.32139873716
4	7	4	179.36911566962
4	9	5	138.41683260207
4	11	6	97.464549534526
4	13	7	56.512266466981
4	15	8	15.559983399436
4	17	9	25.392299668109
4	19	10	66.344582735654
4	21	11	107.2968658032
4	23	12	148.24914887074
4	25	13	189.20143193829
4	27	14	230.15371500583
4	29	15	271.10599807338
4	31	16	312.05828114092
4	33	17	353.01056420847
4	35	18	393.96284727601
4	37	19	365.08486965644
4	39	20	324.1325865889
4	41	21	283.18030352135
4	43	22	242.22802045381
4	45	23	201.27573738626
4	47	24	160.32345431872
4	49	25	119.37117125117
4	51	26	78.418888183626
4	53	27	37.466605116081
4	55	28	3.4856779514635
4	57	29	44.437961019008
4	59	30	85.390244086553
4	61	31	126.3425271541
4	63	32	167.29481022164
4	65	33	208.24709328919
4	67	34	249.19937635673
4	69	35	290.15165942428
4	71	36	331.10394249182
4	73	37	372.05622555937
4	75	38	386.99149137309
4	77	39	346.03920830554
4	79	40	305.086925238
4	81	41	264.13464217045
4	83	42	223.18235910291
4	85	43	182.23007603536
4	87	44	141.27779296782
4	89	45	100.32550990027
4	91	46	59.373226832727
4	93	47	18.420943765182
4	95	48	22.531339302363
4	97	49	63.483622369908
4	99	50	104.43590543745
4	101	51	145.388188505
4	103	52	186.34047157254
4	105	53	227.29275464009
4	107	54	268.24503770763
4	109	55	309.19732077518
4	111	56	350.14960384272
4	113	57	391.10188691027
4	115	58	367.94583002219
4	117	59	326.99354695464
4	119	60	286.0412638871
4	121	61	245.08898081955
4	123	62	204.13669775201
4	125	63	163.18441468446
4	127	64	122.23213161692
4	129	65	81.279848549373
4	131	66	40.327565481828
4	133	67	0.62471758571685
4	135	68	41.577000653262
4	137	69	82.529283720807
4	139	70	123.48156678835
4	141	71	164.4338498559
4	143	72	205.38613292344
4	145	73	246.33841599099
4	147	74	287.29069905853
4	149	75	328.24298212608
4	151	76	369.19526519362
4	153	77	389.85245173883
4	155	78	348.90016867129
4	157	79	307.94788560374
4	159	80	266.9956025362
4	161	81	226.04331946865
4	163	82	185.09103640111
4	165	83	144.13875333356
4	167	84	103.18647026602
4	169	85	62.234187198474
4	171	86	21.281904130929
4	173	87	19.670378936616
4	175	88	60.622662004161
4	177	89	101.57494507171
4	179	90	142.52722813925
4	181	91	183.4795112068
4	183	92	224.43179427434
4	185	93	265.38407734189
4	187	94	306.33636040943
4	189	95	347.28864347698
4	191	96	388.24092654452
4	193	97	370.80679038793
4	195	98	329.85450732039
4	197	99	288.90222425284
4	199	100	247.9499411853
4	201	101	206.99765811775
4	203	102	166.04537505021
4	205	103	125.09309198266
4	207	104	84.14080891512
4	209	105	43.188525847575
4	211	106	2.2362427800298
4	213	107	38.716040287515
4	215	108	79.66832335506
4	217	109	120.62060642261
4	219	110	161.57288949015
4	221	111	202.52517255769
4	223	112	243.47745562524
4	225	113	284.42973869278
4	227	114	325.38202176033
4	229	115	366.33430482787
4	231	116	392.71341210458
4	233	117	351.76112903704
4	235	118	310.80884596949
4	237	119	269.85656290195
4	239	120	228.9042798344
4	241	121	187.95199676686
4	243	122	146.99971369931
4	245	123	106.04743063177
4	247	124	65.095147564221
4	249	125	24.142864496676
4	251	126	16.809418570869
4	253	127	57.761701638414
4	255	128	98.713984705959
4	257	129	139.6662677735
4	259	130	180.61855084105
4	261	131	221.57083390859
4	263	132	262.52311697614
4	265	133	303.47540004368
4	267	134	344.42768311123
4	269	135	385.37996617877
4	271	136	373.66775075368
4	273	137	332.71546768614
4	275	138	291.76318461859
4	277	139	250.81090155105
4	279	140	209.8586184835
4	281	141	168.90633541596
4	283	142	127.95405234841
4	285	143	87.001769280866
4	287	144	46.049486213321
4	289	145	5.0972031457765
4	291	146	35.855079921768
4	293	147	76.807362989313
4	295	148	117.75964605686
4	297	149	158.7119291244
4	299	150	199.66421219195
4	301	151	240.61649525949
4	303	152	281.56877832704
5	0	0	0
5	1	1	0
5	3	2	0
5	5	3	0
5	7	4	0
5	9	5	0
5	11	6	0
5	13	7	0
5	15	8	0
5	17	9	0
5	19	10	0
5	21	11	0
5	23	12	0
5	25	13	0
5	27	14	0
5	29	15	0
5	31	16	0
5	33	17	0
5	35	18	0
5	37	19	0
5	39	20	0
5	41	21	0
5	43	22	0
5	45	23	0
5	47	24	0
5	49	25	0
5	51	26	0
5	53	27	0
5	55	28	0
5	57	29	0
5	59	30	0
5	61	31	0
5	63	32	0
5	65	33	0
5	67	34	0
5	69	35	0
5	71	36	0
5	73	37	0
5	75	38	0
5	77	39	0
5	79	40	0
5	81	41	0
5	83	42	0
5	85	43	0
5	87	44	0
5	89	45	0
5	91	46	0
5	93	47	0
5	95	48	0
5	97	49	0
5	99	50	0
5	101	51	0
5	103	52	0
5	105	53	0
5	107	54	0
5	109	55	0
5	111	56	0
5	113	57	0
5	115	58	0
5	117	59	0
5	119	60	0
5	121	61	0
5	123	62	0
5	125	63	0
5	127	64	0
5	129	65	0
5	131	66	0
5	133	67	0
5	135	68	0
5	137	69	0
5	139	70	0
5	141	71	0
5	143	72	0
5	145	73	0
5	147	74	0
5	149	75	0
5	151	76	0
5	153	77	0
5	155	78	0
5	157	79	0
5	159	80	0
5	161	81	0
5	163	82	0
5	165	83	0
5	167	84	0
5	169	85	0
5	171	86	0
5	173	87	0
5	175	88	0
5	177	89	0
5	179	90	0
5	181	91	0
5	183	92	0
5	185	93	0
5	187	94	0
5	189	95	0
5	191	96	0
5	193	97	0
5	195	98	0
5	197	99	0
5	199	100	0
5	201	101	0
5	203	102	0
5	205	103	0
5	207	104	0
5	209	105	0
5	211	106	0
5	213	107	0
5	215	108	0
5	217	109	0
5	219	110	0
5	221	111	0
5	223	112	0
5	225	113	0
5	227	114	0
5	229	115	0
5	231	116	0
5	233	117	0
5	235	118	0
5	237	119	0
5	239	120	0
5	241	121	0
5	243	122	0
5	245	123	0
5	247	124	0
5	249	125	0
5	251	126	0
5	253	127	0
5	255	128	0
5	257	129	0
5	259	130	0
5	261	131	0
5	263	132	0
5	265	133	0
5	267	134	0
5	269	135	0
5	271	136	0
5	273	137	0
5	275	138	0
5	277	139	0
5	279	140	0
5	281	141	0
5	283	142	0
5	285	143	0
5	287	144	0
5	289	145	0
5	291	146	0
5	293	147	0
5	295	148	0
5	297	149	0
5	299	150	0
5	301	151	0
5	303	152	0
3	305	153	49.3202000867
4	305	153	322.52106139458
5	305	153	0

