file 53430718 1647516080                                        
version 2
run MassMobility-0-20210503-15:37:09-13440
attr configname MassMobility
attr datetime 20210503-15:37:09
attr experiment MassMobility
attr inifile omnetpp.ini
attr iterationvars ""
attr iterationvarsf ""
attr measurement ""
attr network MobileNetwork
attr processid 13440
attr repetition 0
attr replication #0
attr resultdir results
attr runnumber 0
attr seedset 0
param *.numHosts 5
param **.host*.mobility.typename "\"MassMobility\""
param **.host*.mobility.initFromDisplayString false
param **.host*.mobility.changeInterval "truncnormal(2s, 0.5s)"
param **.host*.mobility.angleDelta "normal(0deg, 30deg)"
param **.host*.mobility.speed "truncnormal(15mps, 5mps)"
param *.numHosts 2
param **.constraintAreaMinX 0m
param **.constraintAreaMinY 0m
param **.constraintAreaMinZ 0m
param **.constraintAreaMaxX 600m
param **.constraintAreaMaxY 400m
param **.constraintAreaMaxZ 0m
param **.updateInterval 0.1s
param **.mobility.initFromDisplayString false

vector 0 MobileNetwork.host[0] coordX:vector ETV
attr interpolationmode linear
attr source xCoord(mobilityPos(mobilityStateChanged))
attr title "coord X, vector"
0	14762383 1367791 0 163920 0 3197.851287370004 32768 0.015079727337016 599.9986916215 9780859.4947603 3975307573.8024
0	29824395 1401328 163925 327733 3197.951287370004 6395.137341861351 32768 0.027441459224732 599.98345874982 9756199.4454522 3879468315.1385
0	37321418 1756 327738 327936 6395.237341861351 6399.058556998636 41 424.81097722651 479.4035654282 18610.685687837 8458945.4905509
0	37352534 1191554 327937 466984 6399.066429173622 9112.716006157357 27855 0.085172410084054 599.98062110111 8051861.2072172 3057312395.2887
vector 1 MobileNetwork.host[0] coordY:vector ETV
attr interpolationmode linear
attr source yCoord(mobilityPos(mobilityStateChanged))
attr title "coord Y, vector"
1	16130174 1367821 0 163920 0 3197.851287370004 32768 0.090037143390118 399.9940650643 6727011.1118489 1804857089.086
1	31225723 1401371 163925 327733 3197.951287370004 6395.137341861351 32768 0.0052848381255315 399.98287158774 6681607.132257 1782926117.8487
1	37323174 1759 327738 327936 6395.237341861351 6399.058556998636 41 276.80495430047 314.76220046732 12181.485159691 3624357.893117
1	38544088 1191653 327937 466984 6399.066429173622 9112.716006157357 27855 0.0038605516037302 399.99607375035 5260608.7261832 1380608422.6548
vector 2 MobileNetwork.host[0] coordZ:vector ETV
attr interpolationmode linear
attr source zCoord(mobilityPos(mobilityStateChanged))
attr title "coord Z, vector"
2	17497995 912597 0 163920 0 3197.851287370004 32768 0 0 0 0
2	32627094 946171 163925 327733 3197.951287370004 6395.137341861351 32768 0 0 0 0
2	37324933 1189 327738 327936 6395.237341861351 6399.058556998636 41 0 0 0 0
2	39735741 804614 327937 466984 6399.066429173622 9112.716006157357 27855 0 0 0 0
vector 3 MobileNetwork.host[1] coordX:vector ETV
attr interpolationmode linear
attr source xCoord(mobilityPos(mobilityStateChanged))
attr title "coord X, vector"
3	11113548 1368065 0 163890 0 3197.282580632962 32768 0.0070127927982222 599.99773473099 8846993.1528664 3372669440.4648
3	33573265 1401161 163895 327775 3197.382580632962 6395.941636218279 32768 0.001394756525306 599.98230537484 9831208.8568427 3976642403.9538
3	37326122 1374 327780 327936 6396.022857129428 6399.058556998636 32 392.64767362288 427.70852687813 13175.715618337 5428736.805505
3	40540355 1191517 327937 466984 6399.066429173622 9112.716006157357 27861 0.0097572137805297 599.99555053482 8699016.8892602 3494586025.0616
vector 4 MobileNetwork.host[1] coordY:vector ETV
attr interpolationmode linear
attr source yCoord(mobilityPos(mobilityStateChanged))
attr title "coord Y, vector"
4	12481613 1367974 0 163890 0 3197.282580632962 32768 0.00057564844171409 399.97532838251 6499032.9678749 1710665218.5366
4	34974426 1401114 163895 327775 3197.382580632962 6395.941636218279 32768 0.013903583425055 399.99629061419 6415843.8660709 1653283243.8515
4	37327496 1373 327780 327936 6396.022857129428 6399.058556998636 32 44.112701386799 46.601702527004 1472.8960166602 67806.849589821
4	41731872 1191719 327937 466984 6399.066429173622 9112.716006157357 27861 0.031238145156983 399.99951496755 5554243.7486527 1513740820.5331
vector 5 MobileNetwork.host[1] coordZ:vector ETV
attr interpolationmode linear
attr source zCoord(mobilityPos(mobilityStateChanged))
attr title "coord Z, vector"
5	13849587 912796 0 163890 0 3197.282580632962 32768 0 0 0 0
5	36375540 945878 163895 327775 3197.382580632962 6395.941636218279 32768 0 0 0 0
5	37328869 928 327780 327936 6396.022857129428 6399.058556998636 32 0 0 0 0
5	42923591 804535 327937 466984 6399.066429173622 9112.716006157357 27861 0 0 0 0
vector 6 MobileNetwork.host[2] coordX:vector ETV
attr interpolationmode linear
attr source xCoord(mobilityPos(mobilityStateChanged))
attr title "coord X, vector"
6	3719205 1367871 0 163774 0 3195.006997920618 32768 0.0035629871707478 599.99494985021 9537877.3603442 3662534982.5757
6	22227009 1401863 163779 327606 3195.106997920618 6392.652403115175 32768 0.021614740369327 599.99784496983 9830334.2189743 3968007387.2191
6	37329797 2871 327611 327936 6392.752403115175 6399.058556998636 67 125.1424686499 134.26228075639 8690.1710969745 1127748.3372259
6	43728126 1192411 327937 466984 6399.066429173622 9112.716006157357 27873 0.032528648688885 599.96998942821 7978808.3598835 3080289915.259
vector 7 MobileNetwork.host[2] coordY:vector ETV
attr interpolationmode linear
attr source yCoord(mobilityPos(mobilityStateChanged))
attr title "coord Y, vector"
7	5087076 1367915 0 163774 0 3195.006997920618 32768 0.00035103540410213 399.98520341448 6707896.0183396 1826179361.9236
7	23628872 1401995 163779 327606 3195.106997920618 6392.652403115175 32768 0.0177802780872 399.99913507107 6251216.7572944 1658870531.0541
7	37332668 2871 327611 327936 6392.752403115175 6399.058556998636 67 345.65161242834 399.26470884728 25161.866825552 9460949.1603857
7	44920537 1192401 327937 466984 6399.066429173622 9112.716006157357 27873 0.020658872041427 399.98774779891 5603407.2428284 1514926092.6073
vector 8 MobileNetwork.host[2] coordZ:vector ETV
attr interpolationmode linear
attr source zCoord(mobilityPos(mobilityStateChanged))
attr title "coord Z, vector"
8	6454991 912713 0 163774 0 3195.006997920618 32768 0 0 0 0
8	25030867 946739 163779 327606 3195.106997920618 6392.652403115175 32768 0 0 0 0
8	37335539 1943 327611 327936 6392.752403115175 6399.058556998636 67 0 0 0 0
8	46112938 805238 327937 466984 6399.066429173622 9112.716006157357 27873 0 0 0 0
vector 9 MobileNetwork.host[3] coordX:vector ETV
attr interpolationmode linear
attr source xCoord(mobilityPos(mobilityStateChanged))
attr title "coord X, vector"
9	3394 1368398 0 163715 0 3193.819117119614 32768 0.098393445037519 599.97547288022 10775059.725454 4490734760.0986
9	18410592 1402002 163720 327558 3193.919117119614 6391.692416360238 32768 0.0070581627499546 599.96826258325 9507919.8989359 3766940567.3953
9	37337482 3238 327563 327936 6391.792416360238 6399.058556998636 76 270.26352443201 325.80333912161 22267.368548625 6547193.5308118
9	46918176 1190710 327937 466984 6399.066429173622 9112.716006157357 27850 0.020992712400481 599.96937339557 8059874.9854942 3100378211.406
vector 10 MobileNetwork.host[3] coordY:vector ETV
attr interpolationmode linear
attr source yCoord(mobilityPos(mobilityStateChanged))
attr title "coord Y, vector"
10	1371792 1401371 0 163715 0 3193.819117119614 32768 0.00463267151748 399.98461448863 6433128.6656423 1693098033.5006
10	19812594 1434850 163720 327558 3193.919117119614 6391.692416360238 32768 0.011965805058539 399.99912350763 6509567.6769525 1706962913.8532
10	37340720 3313 327563 327936 6391.792416360238 6399.058556998636 76 170.63614197747 271.7440696421 16330.696732731 3590623.8710273
10	48108886 1218695 327937 466984 6399.066429173622 9112.716006157357 27850 0.10184049280455 399.99348177529 5747804.2687873 1532700304.2997
vector 11 MobileNetwork.host[3] coordZ:vector ETV
attr interpolationmode linear
attr source zCoord(mobilityPos(mobilityStateChanged))
attr title "coord Z, vector"
11	2773163 946042 0 163715 0 3193.819117119614 32768 0 0 0 0
11	21247444 979565 163720 327558 3193.919117119614 6391.692416360238 32768 0 0 0 0
11	37344033 2258 327563 327936 6391.792416360238 6399.058556998636 76 0 0 0 0
11	49327581 831793 327937 466984 6399.066429173622 9112.716006157357 27850 0 0 0 0
vector 12 MobileNetwork.host[4] coordX:vector ETV
attr interpolationmode linear
attr source xCoord(mobilityPos(mobilityStateChanged))
attr title "coord X, vector"
12	7367704 1400394 0 163865 0 3196.793679014532 32768 0.014474899252965 599.92849825147 9791188.7408187 4003476165.2164
12	25977606 1434043 163870 327673 3196.893679014532 6393.955870968735 32768 0.010136048024256 599.95939325875 9271122.367946 3581613913.6441
12	37346291 2326 327678 327936 6394.055870968735 6399.058556998636 53 85.177704918829 151.61553477262 6258.9935899442 762739.96560235
12	50159374 1219385 327937 466984 6399.066429173622 9112.716006157357 27857 0.0025274897234073 599.97679647531 8041603.5232202 3159988314.0523
vector 13 MobileNetwork.host[4] coordY:vector ETV
attr interpolationmode linear
attr source yCoord(mobilityPos(mobilityStateChanged))
attr title "coord Y, vector"
13	8768098 1400256 0 163865 0 3196.793679014532 32768 0.0022585321652677 399.96020675357 6847822.9153408 1852196115.1773
13	27411649 1434017 163870 327673 3196.893679014532 6393.955870968735 32768 0.00058893225224477 399.99594896308 5951151.251944 1512258125.2697
13	37348617 2327 327678 327936 6394.055870968735 6399.058556998636 53 197.58564776732 202.79181879214 10682.628926945 2153254.1190764
13	51378759 1219478 327937 466984 6399.066429173622 9112.716006157357 27857 0.0097417092628547 399.99264605554 5140902.9756298 1328959628.4183
vector 14 MobileNetwork.host[4] coordZ:vector ETV
attr interpolationmode linear
attr source zCoord(mobilityPos(mobilityStateChanged))
attr title "coord Z, vector"
14	10168354 945194 0 163865 0 3196.793679014532 32768 0 0 0 0
14	28845666 978729 163870 327673 3196.893679014532 6393.955870968735 32768 0 0 0 0
14	37350944 1590 327678 327936 6394.055870968735 6399.058556998636 53 0 0 0 0
14	52598237 832481 327937 466984 6399.066429173622 9112.716006157357 27857 0 0 0 0
