version 2
run WS_enabled-0-20211203-15:48:27-28298
attr configname WS_enabled
attr datetime 20211203-15:48:27
attr experiment WS_enabled
attr inifile omnetpp_FR1.ini
attr iterationvars ""
attr iterationvarsf ""
attr measurement ""
attr network tcpwindowscale_FileRetrieval_1
attr processid 28298
attr repetition 0
attr replication #0
attr resultdir results
attr runnumber 0
attr seedset 0
param **.tcp.windowScalingSupport true
param **.tcp.advertisedWindow 65535*100
param **.ip.procDelay 0s
param **.forwarding false
param **.server.ppp[*].numOutputHooks 1
param **.server.ppp[*].outputHook[0].typename "\"ThruputMeter\""
param **.arp.retryTimeout 1s
param **.arp.retryCount 3
param **.arp.cacheTimeout 100s
param **.ppp[*].ppp.queue.typename "\"DropTailQueue\""
param **.ppp[*].ppp.queue.packetCapacity 100
param **.startTime 0s
param **.batchSize 50
param **.maxInterval 1s
param **.client.numApps 1
param **.client.app[*].typename "\"TcpSessionApp\""
param **.client.app[*].sendBytes 100MiB
param **.client.app[*].active true
param **.client.app[*].localPort 10020
param **.client.app[*].connectAddress "\"server\""
param **.client.app[*].connectPort 10021
param **.client.app[*].tOpen 0s
param **.client.app[*].tSend 0s
param **.client.app[*].tClose 0s
param **.client.app[*].sendScript "\"\""
param **.server.numApps 1
param **.server.app[*].typename "\"TcpSinkApp\""
param **.server.app[*].localPort 10021
param **.server.app[*].connectAddress "\"client\""
param **.server.app[*].connectPort 10020
param **.server.app[*].tOpen 0s
param **.server.app[*].tSend 0s
param **.server.app[*].tClose 0s
param **.server.app[*].sendScript "\"\""
param **.tcp.typename "\"Tcp\""
param **.tcp.advertisedWindow 65535
param **.tcp.delayedAcksEnabled false
param **.tcp.nagleEnabled true
param **.tcp.limitedTransmitEnabled false
param **.tcp.increasedIWEnabled false
param **.tcp.sackSupport false
param **.tcp.windowScalingSupport false
param **.tcp.timestampSupport false
param **.tcp.mss 1452
param **.tcp.tcpAlgorithmClass "\"TcpTahoe\""
param **.tcp.recordStats true

vector 0 tcpwindowscale_FileRetrieval_1.client.tcp.conn-2 tcpRcvQueueBytes:vector ETV
attr interpolationmode sample-hold
vector 1 tcpwindowscale_FileRetrieval_1.client.tcp.conn-2 rcvAdv:vector ETV
attr interpolationmode sample-hold
vector 2 tcpwindowscale_FileRetrieval_1.client.tcp.conn-2 rcvWnd:vector ETV
attr interpolationmode sample-hold
vector 3 tcpwindowscale_FileRetrieval_1.client.tcp.conn-2 sndAck:vector ETV
attr interpolationmode sample-hold
vector 4 tcpwindowscale_FileRetrieval_1.client.ipv4.arp arpRequestSent:vector(packetBytes) ETV
attr source arpRequestSent
attr title "ARP request sent, vector(packetBytes)"
vector 5 tcpwindowscale_FileRetrieval_1.client.eth[0].encap encapPk:vector(packetBytes) ETV
attr interpolationmode none
attr source encapPk
attr title "packets encapsulated, vector(packetBytes)"
vector 6 tcpwindowscale_FileRetrieval_1.client.eth[0].mac packetReceivedFromUpper:vector(packetBytes) ETV
attr interpolationmode none
attr source packetReceivedFromUpper
attr title "packet bytes from higher layer, vector(packetBytes)"
vector 7 tcpwindowscale_FileRetrieval_1.client.eth[0].mac.queue packetPushed:vector(packetBytes) ETV
attr interpolationmode none
attr title "packet pushed, vector(packetBytes)"
vector 8 tcpwindowscale_FileRetrieval_1.client.eth[0].mac.queue queueLength:vector ETV
attr interpolationmode sample-hold
attr source "count(packetPushed) - count(packetPopped) - count(packetRemoved) - count(packetDropped)"
attr title "queue length, vector"
vector 9 tcpwindowscale_FileRetrieval_1.client.eth[0].mac.queue packetPopped:vector(packetBytes) ETV
attr interpolationmode none
attr title "packet popped, vector(packetBytes)"
vector 10 tcpwindowscale_FileRetrieval_1.client.eth[0].mac.queue queueingTime:vector ETV
attr interpolationmode none
attr source queueingTime(packetPopped)
attr title "queueing times, vector"
attr unit s
vector 11 tcpwindowscale_FileRetrieval_1.client.eth[0].mac txPk:vector(packetBytes) ETV
attr interpolationmode none
attr source packetSentToLower
attr title "packets transmitted, vector(packetBytes)"
vector 12 tcpwindowscale_FileRetrieval_1.router1.eth[0].mac rxPkOk:vector(packetBytes) ETV
attr interpolationmode none
attr source rxPkOk
attr title "packets received OK, vector(packetBytes)"
vector 13 tcpwindowscale_FileRetrieval_1.router1.eth[0].mac passedUpPk:vector(packetBytes) ETV
attr interpolationmode none
attr source packetSentToUpper
attr title "packets passed to higher layer, vector(packetBytes)"
vector 14 tcpwindowscale_FileRetrieval_1.router1.eth[0].encap decapPk:vector(packetBytes) ETV
attr interpolationmode none
attr source decapPk
attr title "packets decapsulated, vector(packetBytes)"
vector 15 tcpwindowscale_FileRetrieval_1.router1.ipv4.arp arpReplySent:vector(packetBytes) ETV
attr source arpReplySent
attr title "ARP replies sent, vector(packetBytes)"
vector 16 tcpwindowscale_FileRetrieval_1.router1.eth[0].encap encapPk:vector(packetBytes) ETV
attr interpolationmode none
attr source encapPk
attr title "packets encapsulated, vector(packetBytes)"
vector 17 tcpwindowscale_FileRetrieval_1.router1.eth[0].mac packetReceivedFromUpper:vector(packetBytes) ETV
attr interpolationmode none
attr source packetReceivedFromUpper
attr title "packet bytes from higher layer, vector(packetBytes)"
vector 18 tcpwindowscale_FileRetrieval_1.router1.eth[0].mac.queue packetPushed:vector(packetBytes) ETV
attr interpolationmode none
attr title "packet pushed, vector(packetBytes)"
vector 19 tcpwindowscale_FileRetrieval_1.router1.eth[0].mac.queue queueLength:vector ETV
attr interpolationmode sample-hold
attr source "count(packetPushed) - count(packetPopped) - count(packetRemoved) - count(packetDropped)"
attr title "queue length, vector"
vector 20 tcpwindowscale_FileRetrieval_1.router1.eth[0].mac.queue packetPopped:vector(packetBytes) ETV
attr interpolationmode none
attr title "packet popped, vector(packetBytes)"
vector 21 tcpwindowscale_FileRetrieval_1.router1.eth[0].mac.queue queueingTime:vector ETV
attr interpolationmode none
attr source queueingTime(packetPopped)
attr title "queueing times, vector"
attr unit s
vector 22 tcpwindowscale_FileRetrieval_1.router1.eth[0].mac txPk:vector(packetBytes) ETV
attr interpolationmode none
attr source packetSentToLower
attr title "packets transmitted, vector(packetBytes)"
vector 23 tcpwindowscale_FileRetrieval_1.client.eth[0].mac rxPkOk:vector(packetBytes) ETV
attr interpolationmode none
attr source rxPkOk
attr title "packets received OK, vector(packetBytes)"
vector 24 tcpwindowscale_FileRetrieval_1.client.eth[0].mac passedUpPk:vector(packetBytes) ETV
attr interpolationmode none
attr source packetSentToUpper
attr title "packets passed to higher layer, vector(packetBytes)"
vector 25 tcpwindowscale_FileRetrieval_1.client.eth[0].encap decapPk:vector(packetBytes) ETV
attr interpolationmode none
attr source decapPk
attr title "packets decapsulated, vector(packetBytes)"
vector 26 tcpwindowscale_FileRetrieval_1.router1.ipv4.arp arpRequestSent:vector(packetBytes) ETV
attr source arpRequestSent
attr title "ARP request sent, vector(packetBytes)"
vector 27 tcpwindowscale_FileRetrieval_1.router1.eth[1].encap encapPk:vector(packetBytes) ETV
attr interpolationmode none
attr source encapPk
attr title "packets encapsulated, vector(packetBytes)"
vector 28 tcpwindowscale_FileRetrieval_1.router1.eth[1].mac packetReceivedFromUpper:vector(packetBytes) ETV
attr interpolationmode none
attr source packetReceivedFromUpper
attr title "packet bytes from higher layer, vector(packetBytes)"
vector 29 tcpwindowscale_FileRetrieval_1.router1.eth[1].mac.queue packetPushed:vector(packetBytes) ETV
attr interpolationmode none
attr title "packet pushed, vector(packetBytes)"
vector 30 tcpwindowscale_FileRetrieval_1.router1.eth[1].mac.queue queueLength:vector ETV
attr interpolationmode sample-hold
attr source "count(packetPushed) - count(packetPopped) - count(packetRemoved) - count(packetDropped)"
attr title "queue length, vector"
vector 31 tcpwindowscale_FileRetrieval_1.router1.eth[1].mac.queue packetPopped:vector(packetBytes) ETV
attr interpolationmode none
attr title "packet popped, vector(packetBytes)"
vector 32 tcpwindowscale_FileRetrieval_1.router1.eth[1].mac.queue queueingTime:vector ETV
attr interpolationmode none
attr source queueingTime(packetPopped)
attr title "queueing times, vector"
attr unit s
vector 33 tcpwindowscale_FileRetrieval_1.router1.eth[1].mac txPk:vector(packetBytes) ETV
attr interpolationmode none
attr source packetSentToLower
attr title "packets transmitted, vector(packetBytes)"
vector 34 tcpwindowscale_FileRetrieval_1.router2.eth[1].mac rxPkOk:vector(packetBytes) ETV
attr interpolationmode none
attr source rxPkOk
attr title "packets received OK, vector(packetBytes)"
vector 35 tcpwindowscale_FileRetrieval_1.router2.eth[1].mac passedUpPk:vector(packetBytes) ETV
attr interpolationmode none
attr source packetSentToUpper
attr title "packets passed to higher layer, vector(packetBytes)"
vector 36 tcpwindowscale_FileRetrieval_1.router2.eth[1].encap decapPk:vector(packetBytes) ETV
attr interpolationmode none
attr source decapPk
attr title "packets decapsulated, vector(packetBytes)"
vector 37 tcpwindowscale_FileRetrieval_1.router2.ipv4.arp arpReplySent:vector(packetBytes) ETV
attr source arpReplySent
attr title "ARP replies sent, vector(packetBytes)"
vector 38 tcpwindowscale_FileRetrieval_1.router2.eth[1].encap encapPk:vector(packetBytes) ETV
attr interpolationmode none
attr source encapPk
attr title "packets encapsulated, vector(packetBytes)"
vector 39 tcpwindowscale_FileRetrieval_1.router2.eth[1].mac packetReceivedFromUpper:vector(packetBytes) ETV
attr interpolationmode none
attr source packetReceivedFromUpper
attr title "packet bytes from higher layer, vector(packetBytes)"
vector 40 tcpwindowscale_FileRetrieval_1.router2.eth[1].mac.queue packetPushed:vector(packetBytes) ETV
attr interpolationmode none
attr title "packet pushed, vector(packetBytes)"
vector 41 tcpwindowscale_FileRetrieval_1.router2.eth[1].mac.queue queueLength:vector ETV
attr interpolationmode sample-hold
attr source "count(packetPushed) - count(packetPopped) - count(packetRemoved) - count(packetDropped)"
attr title "queue length, vector"
vector 42 tcpwindowscale_FileRetrieval_1.router2.eth[1].mac.queue packetPopped:vector(packetBytes) ETV
attr interpolationmode none
attr title "packet popped, vector(packetBytes)"
vector 43 tcpwindowscale_FileRetrieval_1.router2.eth[1].mac.queue queueingTime:vector ETV
attr interpolationmode none
attr source queueingTime(packetPopped)
attr title "queueing times, vector"
attr unit s
vector 44 tcpwindowscale_FileRetrieval_1.router2.eth[1].mac txPk:vector(packetBytes) ETV
attr interpolationmode none
attr source packetSentToLower
attr title "packets transmitted, vector(packetBytes)"
vector 45 tcpwindowscale_FileRetrieval_1.router1.eth[1].mac rxPkOk:vector(packetBytes) ETV
attr interpolationmode none
attr source rxPkOk
attr title "packets received OK, vector(packetBytes)"
vector 46 tcpwindowscale_FileRetrieval_1.router1.eth[1].mac passedUpPk:vector(packetBytes) ETV
attr interpolationmode none
attr source packetSentToUpper
attr title "packets passed to higher layer, vector(packetBytes)"
vector 47 tcpwindowscale_FileRetrieval_1.router1.eth[1].encap decapPk:vector(packetBytes) ETV
attr interpolationmode none
attr source decapPk
attr title "packets decapsulated, vector(packetBytes)"
vector 48 tcpwindowscale_FileRetrieval_1.router2.ipv4.arp arpRequestSent:vector(packetBytes) ETV
attr source arpRequestSent
attr title "ARP request sent, vector(packetBytes)"
vector 49 tcpwindowscale_FileRetrieval_1.router2.eth[0].encap encapPk:vector(packetBytes) ETV
attr interpolationmode none
attr source encapPk
attr title "packets encapsulated, vector(packetBytes)"
vector 50 tcpwindowscale_FileRetrieval_1.router2.eth[0].mac packetReceivedFromUpper:vector(packetBytes) ETV
attr interpolationmode none
attr source packetReceivedFromUpper
attr title "packet bytes from higher layer, vector(packetBytes)"
vector 51 tcpwindowscale_FileRetrieval_1.router2.eth[0].mac.queue packetPushed:vector(packetBytes) ETV
attr interpolationmode none
attr title "packet pushed, vector(packetBytes)"
vector 52 tcpwindowscale_FileRetrieval_1.router2.eth[0].mac.queue queueLength:vector ETV
attr interpolationmode sample-hold
attr source "count(packetPushed) - count(packetPopped) - count(packetRemoved) - count(packetDropped)"
attr title "queue length, vector"
vector 53 tcpwindowscale_FileRetrieval_1.router2.eth[0].mac.queue packetPopped:vector(packetBytes) ETV
attr interpolationmode none
attr title "packet popped, vector(packetBytes)"
vector 54 tcpwindowscale_FileRetrieval_1.router2.eth[0].mac.queue queueingTime:vector ETV
attr interpolationmode none
attr source queueingTime(packetPopped)
attr title "queueing times, vector"
attr unit s
vector 55 tcpwindowscale_FileRetrieval_1.router2.eth[0].mac txPk:vector(packetBytes) ETV
attr interpolationmode none
attr source packetSentToLower
attr title "packets transmitted, vector(packetBytes)"
vector 56 tcpwindowscale_FileRetrieval_1.server.eth[0].mac rxPkOk:vector(packetBytes) ETV
attr interpolationmode none
attr source rxPkOk
attr title "packets received OK, vector(packetBytes)"
vector 57 tcpwindowscale_FileRetrieval_1.server.eth[0].mac passedUpPk:vector(packetBytes) ETV
attr interpolationmode none
attr source packetSentToUpper
attr title "packets passed to higher layer, vector(packetBytes)"
vector 58 tcpwindowscale_FileRetrieval_1.server.eth[0].encap decapPk:vector(packetBytes) ETV
attr interpolationmode none
attr source decapPk
attr title "packets decapsulated, vector(packetBytes)"
vector 59 tcpwindowscale_FileRetrieval_1.server.ipv4.arp arpReplySent:vector(packetBytes) ETV
attr source arpReplySent
attr title "ARP replies sent, vector(packetBytes)"
vector 60 tcpwindowscale_FileRetrieval_1.server.eth[0].encap encapPk:vector(packetBytes) ETV
attr interpolationmode none
attr source encapPk
attr title "packets encapsulated, vector(packetBytes)"
vector 61 tcpwindowscale_FileRetrieval_1.server.eth[0].mac packetReceivedFromUpper:vector(packetBytes) ETV
attr interpolationmode none
attr source packetReceivedFromUpper
attr title "packet bytes from higher layer, vector(packetBytes)"
vector 62 tcpwindowscale_FileRetrieval_1.server.eth[0].mac.queue packetPushed:vector(packetBytes) ETV
attr interpolationmode none
attr title "packet pushed, vector(packetBytes)"
vector 63 tcpwindowscale_FileRetrieval_1.server.eth[0].mac.queue queueLength:vector ETV
attr interpolationmode sample-hold
attr source "count(packetPushed) - count(packetPopped) - count(packetRemoved) - count(packetDropped)"
attr title "queue length, vector"
vector 64 tcpwindowscale_FileRetrieval_1.server.eth[0].mac.queue packetPopped:vector(packetBytes) ETV
attr interpolationmode none
attr title "packet popped, vector(packetBytes)"
vector 65 tcpwindowscale_FileRetrieval_1.server.eth[0].mac.queue queueingTime:vector ETV
attr interpolationmode none
attr source queueingTime(packetPopped)
attr title "queueing times, vector"
attr unit s
vector 66 tcpwindowscale_FileRetrieval_1.server.eth[0].mac txPk:vector(packetBytes) ETV
attr interpolationmode none
attr source packetSentToLower
attr title "packets transmitted, vector(packetBytes)"
vector 67 tcpwindowscale_FileRetrieval_1.router2.eth[0].mac rxPkOk:vector(packetBytes) ETV
attr interpolationmode none
attr source rxPkOk
attr title "packets received OK, vector(packetBytes)"
vector 68 tcpwindowscale_FileRetrieval_1.router2.eth[0].mac passedUpPk:vector(packetBytes) ETV
attr interpolationmode none
attr source packetSentToUpper
attr title "packets passed to higher layer, vector(packetBytes)"
vector 69 tcpwindowscale_FileRetrieval_1.router2.eth[0].encap decapPk:vector(packetBytes) ETV
attr interpolationmode none
attr source decapPk
attr title "packets decapsulated, vector(packetBytes)"
vector 70 tcpwindowscale_FileRetrieval_1.server.tcp.conn-1 rcvSeq:vector ETV
attr interpolationmode sample-hold
vector 71 tcpwindowscale_FileRetrieval_1.server.tcp.conn-1 rcvAck:vector ETV
attr interpolationmode sample-hold
vector 72 tcpwindowscale_FileRetrieval_1.server.tcp.conn-3 rcvAdv:vector ETV
attr interpolationmode sample-hold
vector 73 tcpwindowscale_FileRetrieval_1.server.tcp.conn-3 sndWnd:vector ETV
attr interpolationmode sample-hold
vector 74 tcpwindowscale_FileRetrieval_1.server.tcp.conn-3 tcpRcvQueueBytes:vector ETV
attr interpolationmode sample-hold
vector 75 tcpwindowscale_FileRetrieval_1.server.tcp.conn-3 rcvWnd:vector ETV
attr interpolationmode sample-hold
vector 76 tcpwindowscale_FileRetrieval_1.server.tcp.conn-3 sndAck:vector ETV
attr interpolationmode sample-hold
vector 77 tcpwindowscale_FileRetrieval_1.client.tcp.conn-2 rcvSeq:vector ETV
attr interpolationmode sample-hold
vector 78 tcpwindowscale_FileRetrieval_1.client.tcp.conn-2 rcvAck:vector ETV
attr interpolationmode sample-hold
vector 79 tcpwindowscale_FileRetrieval_1.client.tcp.conn-2 sndWnd:vector ETV
attr interpolationmode sample-hold
vector 80 tcpwindowscale_FileRetrieval_1.client.app[0] packetSent:vector(packetBytes) ETV
attr interpolationmode none
attr source packetSent
attr title "packets sent, vector(packetBytes)"
vector 81 tcpwindowscale_FileRetrieval_1.client.tcp.conn-2 sndNxt:vector ETV
attr interpolationmode sample-hold
vector 82 tcpwindowscale_FileRetrieval_1.client.tcp.conn-2 unacked:vector ETV
attr interpolationmode sample-hold
vector 83 tcpwindowscale_FileRetrieval_1.server.tcp.conn-3 rcvSeq:vector ETV
attr interpolationmode sample-hold
vector 84 tcpwindowscale_FileRetrieval_1.server.tcp.conn-3 rcvAck:vector ETV
attr interpolationmode sample-hold
vector 85 tcpwindowscale_FileRetrieval_1.server.tcp.conn-3 unacked:vector ETV
attr interpolationmode sample-hold
vector 86 tcpwindowscale_FileRetrieval_1.server.tcp.conn-3 dupAcks:vector ETV
attr interpolationmode sample-hold
vector 87 tcpwindowscale_FileRetrieval_1.server.app[0].thread_3 packetReceived:vector(packetBytes) ETV
attr interpolationmode none
attr source packetReceived
attr title "packets received, vector(packetBytes)"
vector 88 tcpwindowscale_FileRetrieval_1.server.app[0].thread_3 endToEndDelay:vector ETV
attr interpolationmode none
attr source dataAge(packetReceived)
attr title "end-to-end delay, vector"
attr unit s
vector 89 tcpwindowscale_FileRetrieval_1.server.app[0] packetReceived:vector(packetBytes) ETV
attr checkSignals false
attr interpolationmode none
attr source packetReceived
attr title "packets received, vector(packetBytes)"
vector 90 tcpwindowscale_FileRetrieval_1.server.app[0] endToEndDelay:vector ETV
attr checkSignals false
attr interpolationmode none
attr source dataAge(packetReceived)
attr title "end-to-end delay, vector"
attr unit s
vector 91 tcpwindowscale_FileRetrieval_1.client.tcp.conn-2 rtt:vector ETV
attr interpolationmode sample-hold
vector 92 tcpwindowscale_FileRetrieval_1.client.tcp.conn-2 srtt:vector ETV
attr interpolationmode sample-hold
vector 93 tcpwindowscale_FileRetrieval_1.client.tcp.conn-2 rttvar:vector ETV
attr interpolationmode sample-hold
vector 94 tcpwindowscale_FileRetrieval_1.client.tcp.conn-2 rto:vector ETV
attr interpolationmode sample-hold
vector 95 tcpwindowscale_FileRetrieval_1.client.tcp.conn-2 cwnd:vector ETV
attr interpolationmode sample-hold
vector 96 tcpwindowscale_FileRetrieval_1.client.tcp.conn-2 dupAcks:vector ETV
attr interpolationmode sample-hold
vector 97 tcpwindowscale_FileRetrieval_1.server.eth[0].mac packetDropIncorrectlyReceived:vector(packetBytes) ETV
attr interpolationmode none
attr source packetDropReasonIsIncorrectlyReceived(packetDropped)
attr title "packet drop: incorrectly received, vector(packetBytes)"
vector 98 tcpwindowscale_FileRetrieval_1.server.tcp.conn-3 rcvOooSeg:vector ETV
attr interpolationmode sample-hold
vector 99 tcpwindowscale_FileRetrieval_1.client.tcp.conn-2 ssthresh:vector ETV
attr interpolationmode sample-hold
vector 100 tcpwindowscale_FileRetrieval_1.client.tcp.conn-2 numRtos:vector ETV
attr interpolationmode sample-hold
vector 101 tcpwindowscale_FileRetrieval_1.client.eth[0].mac packetDropIncorrectlyReceived:vector(packetBytes) ETV
attr interpolationmode none
attr source packetDropReasonIsIncorrectlyReceived(packetDropped)
attr title "packet drop: incorrectly received, vector(packetBytes)"
vector 102 tcpwindowscale_FileRetrieval_1.router1.eth[0].mac packetDropIncorrectlyReceived:vector(packetBytes) ETV
attr interpolationmode none
attr source packetDropReasonIsIncorrectlyReceived(packetDropped)
attr title "packet drop: incorrectly received, vector(packetBytes)"
vector 103 tcpwindowscale_FileRetrieval_1.server.tcp.conn-3 rcvNASeg:vector ETV
attr interpolationmode sample-hold
vector 104 tcpwindowscale_FileRetrieval_1.router2.eth[0].mac packetDropIncorrectlyReceived:vector(packetBytes) ETV
attr interpolationmode none
attr source packetDropReasonIsIncorrectlyReceived(packetDropped)
attr title "packet drop: incorrectly received, vector(packetBytes)"
0	3	0	0
0	106	2.329111261062	0
0	112	2.329111261062	0
0	184	3.493702219593	0
0	184	3.493702219593	0
0	274	4.658292506124	0
0	274	4.658292506124	0
0	286	4.658304746124	0
0	286	4.658304746124	0
0	454	5.822882792655	0
0	454	5.822882792655	0
0	466	5.822895032655	0
0	466	5.822895032655	0
0	478	5.822907272655	0
0	478	5.822907272655	0
0	490	5.822919512655	0
0	490	5.822919512655	0
0	814	6.987473079186	0
0	814	6.987473079186	0
0	826	6.987485319186	0
0	826	6.987485319186	0
0	838	6.987497559186	0
0	838	6.987497559186	0
0	850	6.987509799186	0
0	850	6.987509799186	0
0	862	6.987522039186	0
0	862	6.987522039186	0
0	874	6.987534279186	0
0	874	6.987534279186	0
0	886	6.987546519186	0
0	886	6.987546519186	0
0	898	6.987558759186	0
0	898	6.987558759186	0
0	1534	8.152063365717	0
0	1534	8.152063365717	0
0	1546	8.152075605717	0
0	1546	8.152075605717	0
0	1558	8.152087845717	0
0	1558	8.152087845717	0
0	1570	8.152100085717	0
0	1570	8.152100085717	0
0	1582	8.152112325717	0
0	1582	8.152112325717	0
0	1594	8.152124565717	0
0	1594	8.152124565717	0
0	1606	8.152136805717	0
0	1606	8.152136805717	0
0	1618	8.152149045717	0
0	1618	8.152149045717	0
0	1630	8.152161285717	0
0	1630	8.152161285717	0
0	1642	8.152173525717	0
0	1642	8.152173525717	0
0	1654	8.152185765717	0
0	1654	8.152185765717	0
0	1666	8.152198005717	0
0	1666	8.152198005717	0
0	1678	8.152210245717	0
0	1678	8.152210245717	0
0	1690	8.152222485717	0
0	1690	8.152222485717	0
0	1702	8.152234725717	0
0	1702	8.152234725717	0
0	1714	8.152246965717	0
0	1714	8.152246965717	0
0	2901	9.316653652248	0
0	2901	9.316653652248	0
0	2913	9.316665892248	0
0	2913	9.316665892248	0
0	2925	9.316678132248	0
0	2925	9.316678132248	0
0	2951	9.316727092248	0
0	3341	14.261617337396	0
0	3388	15.426207623927	0
0	3388	15.426207623927	0
0	3478	16.590797910458	0
0	3487	16.590810150458	0
0	3572	17.755388196989	0
0	3572	17.755388196989	0
0	3584	17.755400436989	0
0	3709	18.91997848352	0
0	3718	18.91999072352	0
0	3718	18.91999072352	0
0	3730	18.92000296352	0
0	3893	20.084568770051	0
0	3902	20.084581010051	0
0	3911	20.084593250051	0
0	3920	20.084605490051	0
0	3920	20.084605490051	0
0	4124	21.249159056582	0
0	4133	21.249171296582	0
0	4142	21.249183536582	0
0	4151	21.249195776582	0
0	4160	21.249208016582	0
0	4160	21.249208016582	0
0	4402	22.413749343113	0
0	4411	22.413761583113	0
0	4420	22.413773823113	0
0	4429	22.413786063113	0
0	4438	22.413798303113	0
0	4447	22.413810543113	0
0	4447	22.413810543113	0
0	4727	23.578339629644	0
0	4736	23.578351869644	0
0	4745	23.578364109644	0
0	4754	23.578376349644	0
0	4763	23.578388589644	0
0	4772	23.578400829644	0
0	4781	23.578413069644	0
0	5056	24.742929916175	0
0	5056	24.742929916175	0
0	5068	24.742942156175	0
0	5080	24.742966636175	0
0	5080	24.742966636175	0
0	5092	24.742978876175	0
0	5101	24.742991116175	0
0	5110	24.743003356175	0
0	5425	25.907520202706	0
0	5434	25.907532442706	0
0	5443	25.907544682706	0
0	5443	25.907544682706	0
0	5455	25.907556922706	0
0	5464	25.907569162706	0
0	5473	25.907581402706	0
0	5482	25.907593642706	0
0	5491	25.907605882706	0
0	5844	27.072110489237	0
0	5853	27.072122729237	0
0	5862	27.072134969237	0
0	5871	27.072147209237	0
0	5880	27.072159449237	0
0	5880	27.072159449237	0
0	5892	27.072171689237	0
0	5901	27.072183929237	0
0	5910	27.072196169237	0
0	5919	27.072208409237	0
0	6281	28.236700775768	0
0	6290	28.236713015768	0
0	6299	28.236725255768	0
0	6316	28.236774215768	0
0	6498	29.401364502299	0
0	6498	29.401364502299	0
0	6588	30.56595478883	0
0	6588	30.56595478883	0
0	6600	30.56596702883	0
0	6600	30.56596702883	0
0	6729	31.730545075361	0
0	6729	31.730545075361	0
0	6825	32.895135361892	0
0	6866	33.943329983191	0
0	6889	34.059725648423	0
0	6889	34.059725648423	0
0	7013	35.224315934954	0
0	7022	35.224328174954	0
0	7094	36.388906221485	0
0	7094	36.388906221485	0
0	7184	37.553496508016	0
0	7184	37.553496508016	0
1	3	0	65535
1	106	2.329111261062	502758
1	106	2.329111261062	6990723
1	112	2.329111261062	6990723
1	184	3.493702219593	6990723
1	184	3.493702219593	6990723
1	274	4.658292506124	6990723
1	274	4.658292506124	6990723
1	286	4.658304746124	6990723
1	286	4.658304746124	6990723
1	454	5.822882792655	6990723
1	454	5.822882792655	6990723
1	466	5.822895032655	6990723
1	466	5.822895032655	6990723
1	478	5.822907272655	6990723
1	478	5.822907272655	6990723
1	490	5.822919512655	6990723
1	490	5.822919512655	6990723
1	814	6.987473079186	6990723
1	814	6.987473079186	6990723
1	826	6.987485319186	6990723
1	826	6.987485319186	6990723
1	838	6.987497559186	6990723
1	838	6.987497559186	6990723
1	850	6.987509799186	6990723
1	850	6.987509799186	6990723
1	862	6.987522039186	6990723
1	862	6.987522039186	6990723
1	874	6.987534279186	6990723
1	874	6.987534279186	6990723
1	886	6.987546519186	6990723
1	886	6.987546519186	6990723
1	898	6.987558759186	6990723
1	898	6.987558759186	6990723
1	1534	8.152063365717	6990723
1	1534	8.152063365717	6990723
1	1546	8.152075605717	6990723
1	1546	8.152075605717	6990723
1	1558	8.152087845717	6990723
1	1558	8.152087845717	6990723
1	1570	8.152100085717	6990723
1	1570	8.152100085717	6990723
1	1582	8.152112325717	6990723
1	1582	8.152112325717	6990723
1	1594	8.152124565717	6990723
1	1594	8.152124565717	6990723
1	1606	8.152136805717	6990723
1	1606	8.152136805717	6990723
1	1618	8.152149045717	6990723
1	1618	8.152149045717	6990723
1	1630	8.152161285717	6990723
1	1630	8.152161285717	6990723
1	1642	8.152173525717	6990723
1	1642	8.152173525717	6990723
1	1654	8.152185765717	6990723
1	1654	8.152185765717	6990723
1	1666	8.152198005717	6990723
1	1666	8.152198005717	6990723
1	1678	8.152210245717	6990723
1	1678	8.152210245717	6990723
1	1690	8.152222485717	6990723
1	1690	8.152222485717	6990723
1	1702	8.152234725717	6990723
1	1702	8.152234725717	6990723
1	1714	8.152246965717	6990723
1	1714	8.152246965717	6990723
1	2901	9.316653652248	6990723
1	2901	9.316653652248	6990723
1	2913	9.316665892248	6990723
1	2913	9.316665892248	6990723
1	2925	9.316678132248	6990723
1	2925	9.316678132248	6990723
1	2951	9.316727092248	6990723
1	3341	14.261617337396	6990723
1	3388	15.426207623927	6990723
1	3388	15.426207623927	6990723
1	3478	16.590797910458	6990723
1	3487	16.590810150458	6990723
1	3572	17.755388196989	6990723
1	3572	17.755388196989	6990723
1	3584	17.755400436989	6990723
1	3709	18.91997848352	6990723
1	3718	18.91999072352	6990723
1	3718	18.91999072352	6990723
1	3730	18.92000296352	6990723
1	3893	20.084568770051	6990723
1	3902	20.084581010051	6990723
1	3911	20.084593250051	6990723
1	3920	20.084605490051	6990723
1	3920	20.084605490051	6990723
1	4124	21.249159056582	6990723
1	4133	21.249171296582	6990723
1	4142	21.249183536582	6990723
1	4151	21.249195776582	6990723
1	4160	21.249208016582	6990723
1	4160	21.249208016582	6990723
1	4402	22.413749343113	6990723
1	4411	22.413761583113	6990723
1	4420	22.413773823113	6990723
1	4429	22.413786063113	6990723
1	4438	22.413798303113	6990723
1	4447	22.413810543113	6990723
1	4447	22.413810543113	6990723
1	4727	23.578339629644	6990723
1	4736	23.578351869644	6990723
1	4745	23.578364109644	6990723
1	4754	23.578376349644	6990723
1	4763	23.578388589644	6990723
1	4772	23.578400829644	6990723
1	4781	23.578413069644	6990723
1	5056	24.742929916175	6990723
1	5056	24.742929916175	6990723
1	5068	24.742942156175	6990723
1	5080	24.742966636175	6990723
1	5080	24.742966636175	6990723
1	5092	24.742978876175	6990723
1	5101	24.742991116175	6990723
1	5110	24.743003356175	6990723
1	5425	25.907520202706	6990723
1	5434	25.907532442706	6990723
1	5443	25.907544682706	6990723
1	5443	25.907544682706	6990723
1	5455	25.907556922706	6990723
1	5464	25.907569162706	6990723
1	5473	25.907581402706	6990723
1	5482	25.907593642706	6990723
1	5491	25.907605882706	6990723
1	5844	27.072110489237	6990723
1	5853	27.072122729237	6990723
1	5862	27.072134969237	6990723
1	5871	27.072147209237	6990723
1	5880	27.072159449237	6990723
1	5880	27.072159449237	6990723
1	5892	27.072171689237	6990723
1	5901	27.072183929237	6990723
1	5910	27.072196169237	6990723
1	5919	27.072208409237	6990723
1	6281	28.236700775768	6990723
1	6290	28.236713015768	6990723
1	6299	28.236725255768	6990723
1	6316	28.236774215768	6990723
1	6498	29.401364502299	6990723
1	6498	29.401364502299	6990723
1	6588	30.56595478883	6990723
1	6588	30.56595478883	6990723
1	6600	30.56596702883	6990723
1	6600	30.56596702883	6990723
1	6729	31.730545075361	6990723
1	6729	31.730545075361	6990723
1	6825	32.895135361892	6990723
1	6866	33.943329983191	6990723
1	6889	34.059725648423	6990723
1	6889	34.059725648423	6990723
1	7013	35.224315934954	6990723
1	7022	35.224328174954	6990723
1	7094	36.388906221485	6990723
1	7094	36.388906221485	6990723
1	7184	37.553496508016	6990723
1	7184	37.553496508016	6990723
2	3	0	65535
2	106	2.329111261062	6553500
2	112	2.329111261062	6553500
2	184	3.493702219593	6553500
2	184	3.493702219593	6553500
2	274	4.658292506124	6553500
2	274	4.658292506124	6553500
2	286	4.658304746124	6553500
2	286	4.658304746124	6553500
2	454	5.822882792655	6553500
2	454	5.822882792655	6553500
2	466	5.822895032655	6553500
2	466	5.822895032655	6553500
2	478	5.822907272655	6553500
2	478	5.822907272655	6553500
2	490	5.822919512655	6553500
2	490	5.822919512655	6553500
2	814	6.987473079186	6553500
2	814	6.987473079186	6553500
2	826	6.987485319186	6553500
2	826	6.987485319186	6553500
2	838	6.987497559186	6553500
2	838	6.987497559186	6553500
2	850	6.987509799186	6553500
2	850	6.987509799186	6553500
2	862	6.987522039186	6553500
2	862	6.987522039186	6553500
2	874	6.987534279186	6553500
2	874	6.987534279186	6553500
2	886	6.987546519186	6553500
2	886	6.987546519186	6553500
2	898	6.987558759186	6553500
2	898	6.987558759186	6553500
2	1534	8.152063365717	6553500
2	1534	8.152063365717	6553500
2	1546	8.152075605717	6553500
2	1546	8.152075605717	6553500
2	1558	8.152087845717	6553500
2	1558	8.152087845717	6553500
2	1570	8.152100085717	6553500
2	1570	8.152100085717	6553500
2	1582	8.152112325717	6553500
2	1582	8.152112325717	6553500
2	1594	8.152124565717	6553500
2	1594	8.152124565717	6553500
2	1606	8.152136805717	6553500
2	1606	8.152136805717	6553500
2	1618	8.152149045717	6553500
2	1618	8.152149045717	6553500
2	1630	8.152161285717	6553500
2	1630	8.152161285717	6553500
2	1642	8.152173525717	6553500
2	1642	8.152173525717	6553500
2	1654	8.152185765717	6553500
2	1654	8.152185765717	6553500
2	1666	8.152198005717	6553500
2	1666	8.152198005717	6553500
2	1678	8.152210245717	6553500
2	1678	8.152210245717	6553500
2	1690	8.152222485717	6553500
2	1690	8.152222485717	6553500
2	1702	8.152234725717	6553500
2	1702	8.152234725717	6553500
2	1714	8.152246965717	6553500
2	1714	8.152246965717	6553500
2	2901	9.316653652248	6553500
2	2901	9.316653652248	6553500
2	2913	9.316665892248	6553500
2	2913	9.316665892248	6553500
2	2925	9.316678132248	6553500
2	2925	9.316678132248	6553500
2	2951	9.316727092248	6553500
2	3341	14.261617337396	6553500
2	3388	15.426207623927	6553500
2	3388	15.426207623927	6553500
2	3478	16.590797910458	6553500
2	3487	16.590810150458	6553500
2	3572	17.755388196989	6553500
2	3572	17.755388196989	6553500
2	3584	17.755400436989	6553500
2	3709	18.91997848352	6553500
2	3718	18.91999072352	6553500
2	3718	18.91999072352	6553500
2	3730	18.92000296352	6553500
2	3893	20.084568770051	6553500
2	3902	20.084581010051	6553500
2	3911	20.084593250051	6553500
2	3920	20.084605490051	6553500
2	3920	20.084605490051	6553500
2	4124	21.249159056582	6553500
2	4133	21.249171296582	6553500
2	4142	21.249183536582	6553500
2	4151	21.249195776582	6553500
2	4160	21.249208016582	6553500
2	4160	21.249208016582	6553500
2	4402	22.413749343113	6553500
2	4411	22.413761583113	6553500
2	4420	22.413773823113	6553500
2	4429	22.413786063113	6553500
2	4438	22.413798303113	6553500
2	4447	22.413810543113	6553500
2	4447	22.413810543113	6553500
2	4727	23.578339629644	6553500
2	4736	23.578351869644	6553500
2	4745	23.578364109644	6553500
2	4754	23.578376349644	6553500
2	4763	23.578388589644	6553500
2	4772	23.578400829644	6553500
2	4781	23.578413069644	6553500
2	5056	24.742929916175	6553500
2	5056	24.742929916175	6553500
2	5068	24.742942156175	6553500
2	5080	24.742966636175	6553500
2	5080	24.742966636175	6553500
2	5092	24.742978876175	6553500
2	5101	24.742991116175	6553500
2	5110	24.743003356175	6553500
2	5425	25.907520202706	6553500
2	5434	25.907532442706	6553500
2	5443	25.907544682706	6553500
2	5443	25.907544682706	6553500
2	5455	25.907556922706	6553500
2	5464	25.907569162706	6553500
2	5473	25.907581402706	6553500
2	5482	25.907593642706	6553500
2	5491	25.907605882706	6553500
2	5844	27.072110489237	6553500
2	5853	27.072122729237	6553500
2	5862	27.072134969237	6553500
2	5871	27.072147209237	6553500
2	5880	27.072159449237	6553500
2	5880	27.072159449237	6553500
2	5892	27.072171689237	6553500
2	5901	27.072183929237	6553500
2	5910	27.072196169237	6553500
2	5919	27.072208409237	6553500
2	6281	28.236700775768	6553500
2	6290	28.236713015768	6553500
2	6299	28.236725255768	6553500
2	6316	28.236774215768	6553500
2	6498	29.401364502299	6553500
2	6498	29.401364502299	6553500
2	6588	30.56595478883	6553500
2	6588	30.56595478883	6553500
2	6600	30.56596702883	6553500
2	6600	30.56596702883	6553500
2	6729	31.730545075361	6553500
2	6729	31.730545075361	6553500
2	6825	32.895135361892	6553500
2	6866	33.943329983191	6553500
2	6889	34.059725648423	6553500
2	6889	34.059725648423	6553500
2	7013	35.224315934954	6553500
2	7022	35.224328174954	6553500
2	7094	36.388906221485	6553500
2	7094	36.388906221485	6553500
2	7184	37.553496508016	6553500
2	7184	37.553496508016	6553500
3	3	0	0
3	106	2.329111261062	437223
3	112	2.329111261062	437223
3	184	3.493702219593	437223
3	184	3.493702219593	437223
3	274	4.658292506124	437223
3	274	4.658292506124	437223
3	286	4.658304746124	437223
3	286	4.658304746124	437223
3	454	5.822882792655	437223
3	454	5.822882792655	437223
3	466	5.822895032655	437223
3	466	5.822895032655	437223
3	478	5.822907272655	437223
3	478	5.822907272655	437223
3	490	5.822919512655	437223
3	490	5.822919512655	437223
3	814	6.987473079186	437223
3	814	6.987473079186	437223
3	826	6.987485319186	437223
3	826	6.987485319186	437223
3	838	6.987497559186	437223
3	838	6.987497559186	437223
3	850	6.987509799186	437223
3	850	6.987509799186	437223
3	862	6.987522039186	437223
3	862	6.987522039186	437223
3	874	6.987534279186	437223
3	874	6.987534279186	437223
3	886	6.987546519186	437223
3	886	6.987546519186	437223
3	898	6.987558759186	437223
3	898	6.987558759186	437223
3	1534	8.152063365717	437223
3	1534	8.152063365717	437223
3	1546	8.152075605717	437223
3	1546	8.152075605717	437223
3	1558	8.152087845717	437223
3	1558	8.152087845717	437223
3	1570	8.152100085717	437223
3	1570	8.152100085717	437223
3	1582	8.152112325717	437223
3	1582	8.152112325717	437223
3	1594	8.152124565717	437223
3	1594	8.152124565717	437223
3	1606	8.152136805717	437223
3	1606	8.152136805717	437223
3	1618	8.152149045717	437223
3	1618	8.152149045717	437223
3	1630	8.152161285717	437223
3	1630	8.152161285717	437223
3	1642	8.152173525717	437223
3	1642	8.152173525717	437223
3	1654	8.152185765717	437223
3	1654	8.152185765717	437223
3	1666	8.152198005717	437223
3	1666	8.152198005717	437223
3	1678	8.152210245717	437223
3	1678	8.152210245717	437223
3	1690	8.152222485717	437223
3	1690	8.152222485717	437223
3	1702	8.152234725717	437223
3	1702	8.152234725717	437223
3	1714	8.152246965717	437223
3	1714	8.152246965717	437223
3	2901	9.316653652248	437223
3	2901	9.316653652248	437223
3	2913	9.316665892248	437223
3	2913	9.316665892248	437223
3	2925	9.316678132248	437223
3	2925	9.316678132248	437223
3	2951	9.316727092248	437223
3	3341	14.261617337396	437223
3	3388	15.426207623927	437223
3	3388	15.426207623927	437223
3	3478	16.590797910458	437223
3	3487	16.590810150458	437223
3	3572	17.755388196989	437223
3	3572	17.755388196989	437223
3	3584	17.755400436989	437223
3	3709	18.91997848352	437223
3	3718	18.91999072352	437223
3	3718	18.91999072352	437223
3	3730	18.92000296352	437223
3	3893	20.084568770051	437223
3	3902	20.084581010051	437223
3	3911	20.084593250051	437223
3	3920	20.084605490051	437223
3	3920	20.084605490051	437223
3	4124	21.249159056582	437223
3	4133	21.249171296582	437223
3	4142	21.249183536582	437223
3	4151	21.249195776582	437223
3	4160	21.249208016582	437223
3	4160	21.249208016582	437223
3	4402	22.413749343113	437223
3	4411	22.413761583113	437223
3	4420	22.413773823113	437223
3	4429	22.413786063113	437223
3	4438	22.413798303113	437223
3	4447	22.413810543113	437223
3	4447	22.413810543113	437223
3	4727	23.578339629644	437223
3	4736	23.578351869644	437223
3	4745	23.578364109644	437223
3	4754	23.578376349644	437223
3	4763	23.578388589644	437223
3	4772	23.578400829644	437223
3	4781	23.578413069644	437223
3	5056	24.742929916175	437223
3	5056	24.742929916175	437223
3	5068	24.742942156175	437223
3	5080	24.742966636175	437223
3	5080	24.742966636175	437223
3	5092	24.742978876175	437223
3	5101	24.742991116175	437223
3	5110	24.743003356175	437223
3	5425	25.907520202706	437223
3	5434	25.907532442706	437223
3	5443	25.907544682706	437223
3	5443	25.907544682706	437223
3	5455	25.907556922706	437223
3	5464	25.907569162706	437223
3	5473	25.907581402706	437223
3	5482	25.907593642706	437223
3	5491	25.907605882706	437223
3	5844	27.072110489237	437223
3	5853	27.072122729237	437223
3	5862	27.072134969237	437223
3	5871	27.072147209237	437223
3	5880	27.072159449237	437223
3	5880	27.072159449237	437223
3	5892	27.072171689237	437223
3	5901	27.072183929237	437223
3	5910	27.072196169237	437223
3	5919	27.072208409237	437223
3	6281	28.236700775768	437223
3	6290	28.236713015768	437223
3	6299	28.236725255768	437223
3	6316	28.236774215768	437223
3	6498	29.401364502299	437223
3	6498	29.401364502299	437223
3	6588	30.56595478883	437223
3	6588	30.56595478883	437223
3	6600	30.56596702883	437223
3	6600	30.56596702883	437223
3	6729	31.730545075361	437223
3	6729	31.730545075361	437223
3	6825	32.895135361892	437223
3	6866	33.943329983191	437223
3	6889	34.059725648423	437223
3	6889	34.059725648423	437223
3	7013	35.224315934954	437223
3	7022	35.224328174954	437223
3	7094	36.388906221485	437223
3	7094	36.388906221485	437223
3	7184	37.553496508016	437223
3	7184	37.553496508016	437223
4	4	0	28
5	5	0	28
5	19	0.014814584551	48
5	109	2.329111261062	40
5	116	2.329111261062	1492
5	187	3.493702219593	1492
5	188	3.493702219593	1492
5	277	4.658292506124	1492
5	278	4.658292506124	1492
5	289	4.658304746124	1492
5	290	4.658304746124	1492
5	457	5.822882792655	1492
5	458	5.822882792655	1492
5	469	5.822895032655	1492
5	470	5.822895032655	1492
5	481	5.822907272655	1492
5	482	5.822907272655	1492
5	493	5.822919512655	1492
5	494	5.822919512655	1492
5	817	6.987473079186	1492
5	818	6.987473079186	1492
5	829	6.987485319186	1492
5	830	6.987485319186	1492
5	841	6.987497559186	1492
5	842	6.987497559186	1492
5	853	6.987509799186	1492
5	854	6.987509799186	1492
5	865	6.987522039186	1492
5	866	6.987522039186	1492
5	877	6.987534279186	1492
5	878	6.987534279186	1492
5	889	6.987546519186	1492
5	890	6.987546519186	1492
5	901	6.987558759186	1492
5	902	6.987558759186	1492
5	1537	8.152063365717	1492
5	1538	8.152063365717	1492
5	1549	8.152075605717	1492
5	1550	8.152075605717	1492
5	1561	8.152087845717	1492
5	1562	8.152087845717	1492
5	1573	8.152100085717	1492
5	1574	8.152100085717	1492
5	1585	8.152112325717	1492
5	1586	8.152112325717	1492
5	1597	8.152124565717	1492
5	1598	8.152124565717	1492
5	1609	8.152136805717	1492
5	1610	8.152136805717	1492
5	1621	8.152149045717	1492
5	1622	8.152149045717	1492
5	1633	8.152161285717	1492
5	1634	8.152161285717	1492
5	1645	8.152173525717	1492
5	1646	8.152173525717	1492
5	1657	8.152185765717	1492
5	1658	8.152185765717	1492
5	1669	8.152198005717	1492
5	1670	8.152198005717	1492
5	1681	8.152210245717	1492
5	1682	8.152210245717	1492
5	1693	8.152222485717	1492
5	1694	8.152222485717	1492
5	1705	8.152234725717	1492
5	1706	8.152234725717	1492
5	1717	8.152246965717	1492
5	1718	8.152246965717	1492
5	2904	9.316653652248	1492
5	2905	9.316653652248	1492
5	2916	9.316665892248	1492
5	2917	9.316665892248	1492
5	2928	9.316678132248	1492
5	2929	9.316678132248	1492
5	2953	9.316727092248	1492
5	3343	14.261617337396	1492
5	3391	15.426207623927	1492
5	3392	15.426207623927	1492
5	3480	16.590797910458	1492
5	3489	16.590810150458	1492
5	3575	17.755388196989	1492
5	3576	17.755388196989	1492
5	3586	17.755400436989	1492
5	3711	18.91997848352	1492
5	3721	18.91999072352	1492
5	3722	18.91999072352	1492
5	3732	18.92000296352	1492
5	3895	20.084568770051	1492
5	3904	20.084581010051	1492
5	3913	20.084593250051	1492
5	3923	20.084605490051	1492
5	3924	20.084605490051	1492
5	4126	21.249159056582	1492
5	4135	21.249171296582	1492
5	4144	21.249183536582	1492
5	4153	21.249195776582	1492
5	4163	21.249208016582	1492
5	4164	21.249208016582	1492
5	4404	22.413749343113	1492
5	4413	22.413761583113	1492
5	4422	22.413773823113	1492
5	4431	22.413786063113	1492
5	4440	22.413798303113	1492
5	4450	22.413810543113	1492
5	4451	22.413810543113	1492
5	4729	23.578339629644	1492
5	4738	23.578351869644	1492
5	4747	23.578364109644	1492
5	4756	23.578376349644	1492
5	4765	23.578388589644	1492
5	4774	23.578400829644	1492
5	4783	23.578413069644	1492
5	5059	24.742929916175	1492
5	5060	24.742929916175	1492
5	5070	24.742942156175	1492
5	5083	24.742966636175	1492
5	5084	24.742966636175	1492
5	5094	24.742978876175	1492
5	5103	24.742991116175	1492
5	5112	24.743003356175	1492
5	5427	25.907520202706	1492
5	5436	25.907532442706	1492
5	5446	25.907544682706	1492
5	5447	25.907544682706	1492
5	5457	25.907556922706	1492
5	5466	25.907569162706	1492
5	5475	25.907581402706	1492
5	5484	25.907593642706	1492
5	5493	25.907605882706	1492
5	5846	27.072110489237	1492
5	5855	27.072122729237	1492
5	5864	27.072134969237	1492
5	5873	27.072147209237	1492
5	5883	27.072159449237	1492
5	5884	27.072159449237	1492
5	5894	27.072171689237	1492
5	5903	27.072183929237	1492
5	5912	27.072196169237	1492
5	5921	27.072208409237	1492
5	6283	28.236700775768	1492
5	6292	28.236713015768	1492
5	6301	28.236725255768	1492
5	6318	28.236774215768	1492
5	6501	29.401364502299	1492
5	6502	29.401364502299	1492
5	6591	30.56595478883	1492
5	6592	30.56595478883	1492
5	6603	30.56596702883	1492
5	6604	30.56596702883	1492
5	6732	31.730545075361	1492
5	6733	31.730545075361	1492
5	6827	32.895135361892	1492
5	6868	33.943329983191	1492
5	6892	34.059725648423	1492
5	6893	34.059725648423	1492
5	7015	35.224315934954	1492
5	7024	35.224328174954	1492
5	7097	36.388906221485	1492
5	7098	36.388906221485	1492
5	7187	37.553496508016	1492
5	7188	37.553496508016	1492
6	6	0	46
6	20	0.014814584551	66
6	111	2.329111261062	58
6	117	2.329111261062	1510
6	189	3.493702219593	1510
6	190	3.493702219593	1510
6	279	4.658292506124	1510
6	280	4.658292506124	1510
6	291	4.658304746124	1510
6	292	4.658304746124	1510
6	459	5.822882792655	1510
6	460	5.822882792655	1510
6	471	5.822895032655	1510
6	472	5.822895032655	1510
6	483	5.822907272655	1510
6	484	5.822907272655	1510
6	495	5.822919512655	1510
6	496	5.822919512655	1510
6	819	6.987473079186	1510
6	820	6.987473079186	1510
6	831	6.987485319186	1510
6	832	6.987485319186	1510
6	843	6.987497559186	1510
6	844	6.987497559186	1510
6	855	6.987509799186	1510
6	856	6.987509799186	1510
6	867	6.987522039186	1510
6	868	6.987522039186	1510
6	879	6.987534279186	1510
6	880	6.987534279186	1510
6	891	6.987546519186	1510
6	892	6.987546519186	1510
6	903	6.987558759186	1510
6	904	6.987558759186	1510
6	1539	8.152063365717	1510
6	1540	8.152063365717	1510
6	1551	8.152075605717	1510
6	1552	8.152075605717	1510
6	1563	8.152087845717	1510
6	1564	8.152087845717	1510
6	1575	8.152100085717	1510
6	1576	8.152100085717	1510
6	1587	8.152112325717	1510
6	1588	8.152112325717	1510
6	1599	8.152124565717	1510
6	1600	8.152124565717	1510
6	1611	8.152136805717	1510
6	1612	8.152136805717	1510
6	1623	8.152149045717	1510
6	1624	8.152149045717	1510
6	1635	8.152161285717	1510
6	1636	8.152161285717	1510
6	1647	8.152173525717	1510
6	1648	8.152173525717	1510
6	1659	8.152185765717	1510
6	1660	8.152185765717	1510
6	1671	8.152198005717	1510
6	1672	8.152198005717	1510
6	1683	8.152210245717	1510
6	1684	8.152210245717	1510
6	1695	8.152222485717	1510
6	1696	8.152222485717	1510
6	1707	8.152234725717	1510
6	1708	8.152234725717	1510
6	1719	8.152246965717	1510
6	1720	8.152246965717	1510
6	2906	9.316653652248	1510
6	2907	9.316653652248	1510
6	2918	9.316665892248	1510
6	2919	9.316665892248	1510
6	2930	9.316678132248	1510
6	2931	9.316678132248	1510
6	2954	9.316727092248	1510
6	3344	14.261617337396	1510
6	3393	15.426207623927	1510
6	3394	15.426207623927	1510
6	3481	16.590797910458	1510
6	3490	16.590810150458	1510
6	3577	17.755388196989	1510
6	3578	17.755388196989	1510
6	3587	17.755400436989	1510
6	3712	18.91997848352	1510
6	3723	18.91999072352	1510
6	3724	18.91999072352	1510
6	3733	18.92000296352	1510
6	3896	20.084568770051	1510
6	3905	20.084581010051	1510
6	3914	20.084593250051	1510
6	3925	20.084605490051	1510
6	3926	20.084605490051	1510
6	4127	21.249159056582	1510
6	4136	21.249171296582	1510
6	4145	21.249183536582	1510
6	4154	21.249195776582	1510
6	4165	21.249208016582	1510
6	4166	21.249208016582	1510
6	4405	22.413749343113	1510
6	4414	22.413761583113	1510
6	4423	22.413773823113	1510
6	4432	22.413786063113	1510
6	4441	22.413798303113	1510
6	4452	22.413810543113	1510
6	4453	22.413810543113	1510
6	4730	23.578339629644	1510
6	4739	23.578351869644	1510
6	4748	23.578364109644	1510
6	4757	23.578376349644	1510
6	4766	23.578388589644	1510
6	4775	23.578400829644	1510
6	4784	23.578413069644	1510
6	5061	24.742929916175	1510
6	5062	24.742929916175	1510
6	5071	24.742942156175	1510
6	5085	24.742966636175	1510
6	5086	24.742966636175	1510
6	5095	24.742978876175	1510
6	5104	24.742991116175	1510
6	5113	24.743003356175	1510
6	5428	25.907520202706	1510
6	5437	25.907532442706	1510
6	5448	25.907544682706	1510
6	5449	25.907544682706	1510
6	5458	25.907556922706	1510
6	5467	25.907569162706	1510
6	5476	25.907581402706	1510
6	5485	25.907593642706	1510
6	5494	25.907605882706	1510
6	5847	27.072110489237	1510
6	5856	27.072122729237	1510
6	5865	27.072134969237	1510
6	5874	27.072147209237	1510
6	5885	27.072159449237	1510
6	5886	27.072159449237	1510
6	5895	27.072171689237	1510
6	5904	27.072183929237	1510
6	5913	27.072196169237	1510
6	5922	27.072208409237	1510
6	6284	28.236700775768	1510
6	6293	28.236713015768	1510
6	6302	28.236725255768	1510
6	6319	28.236774215768	1510
6	6503	29.401364502299	1510
6	6504	29.401364502299	1510
6	6593	30.56595478883	1510
6	6594	30.56595478883	1510
6	6605	30.56596702883	1510
6	6606	30.56596702883	1510
6	6734	31.730545075361	1510
6	6735	31.730545075361	1510
6	6828	32.895135361892	1510
6	6869	33.943329983191	1510
6	6894	34.059725648423	1510
6	6895	34.059725648423	1510
6	7016	35.224315934954	1510
6	7025	35.224328174954	1510
6	7099	36.388906221485	1510
6	7100	36.388906221485	1510
6	7189	37.553496508016	1510
6	7190	37.553496508016	1510
7	6	0	64
7	20	0.014814584551	66
7	111	2.329111261062	64
7	117	2.329111261062	1510
7	189	3.493702219593	1510
7	190	3.493702219593	1510
7	279	4.658292506124	1510
7	280	4.658292506124	1510
7	291	4.658304746124	1510
7	292	4.658304746124	1510
7	459	5.822882792655	1510
7	460	5.822882792655	1510
7	471	5.822895032655	1510
7	472	5.822895032655	1510
7	483	5.822907272655	1510
7	484	5.822907272655	1510
7	495	5.822919512655	1510
7	496	5.822919512655	1510
7	819	6.987473079186	1510
7	820	6.987473079186	1510
7	831	6.987485319186	1510
7	832	6.987485319186	1510
7	843	6.987497559186	1510
7	844	6.987497559186	1510
7	855	6.987509799186	1510
7	856	6.987509799186	1510
7	867	6.987522039186	1510
7	868	6.987522039186	1510
7	879	6.987534279186	1510
7	880	6.987534279186	1510
7	891	6.987546519186	1510
7	892	6.987546519186	1510
7	903	6.987558759186	1510
7	904	6.987558759186	1510
7	1539	8.152063365717	1510
7	1540	8.152063365717	1510
7	1551	8.152075605717	1510
7	1552	8.152075605717	1510
7	1563	8.152087845717	1510
7	1564	8.152087845717	1510
7	1575	8.152100085717	1510
7	1576	8.152100085717	1510
7	1587	8.152112325717	1510
7	1588	8.152112325717	1510
7	1599	8.152124565717	1510
7	1600	8.152124565717	1510
7	1611	8.152136805717	1510
7	1612	8.152136805717	1510
7	1623	8.152149045717	1510
7	1624	8.152149045717	1510
7	1635	8.152161285717	1510
7	1636	8.152161285717	1510
7	1647	8.152173525717	1510
7	1648	8.152173525717	1510
7	1659	8.152185765717	1510
7	1660	8.152185765717	1510
7	1671	8.152198005717	1510
7	1672	8.152198005717	1510
7	1683	8.152210245717	1510
7	1684	8.152210245717	1510
7	1695	8.152222485717	1510
7	1696	8.152222485717	1510
7	1707	8.152234725717	1510
7	1708	8.152234725717	1510
7	1719	8.152246965717	1510
7	1720	8.152246965717	1510
7	2906	9.316653652248	1510
7	2907	9.316653652248	1510
7	2918	9.316665892248	1510
7	2919	9.316665892248	1510
7	2930	9.316678132248	1510
7	2931	9.316678132248	1510
7	2954	9.316727092248	1510
7	3344	14.261617337396	1510
7	3393	15.426207623927	1510
7	3394	15.426207623927	1510
7	3481	16.590797910458	1510
7	3490	16.590810150458	1510
7	3577	17.755388196989	1510
7	3578	17.755388196989	1510
7	3587	17.755400436989	1510
7	3712	18.91997848352	1510
7	3723	18.91999072352	1510
7	3724	18.91999072352	1510
7	3733	18.92000296352	1510
7	3896	20.084568770051	1510
7	3905	20.084581010051	1510
7	3914	20.084593250051	1510
7	3925	20.084605490051	1510
7	3926	20.084605490051	1510
7	4127	21.249159056582	1510
7	4136	21.249171296582	1510
7	4145	21.249183536582	1510
7	4154	21.249195776582	1510
7	4165	21.249208016582	1510
7	4166	21.249208016582	1510
7	4405	22.413749343113	1510
7	4414	22.413761583113	1510
7	4423	22.413773823113	1510
7	4432	22.413786063113	1510
7	4441	22.413798303113	1510
7	4452	22.413810543113	1510
7	4453	22.413810543113	1510
7	4730	23.578339629644	1510
7	4739	23.578351869644	1510
7	4748	23.578364109644	1510
7	4757	23.578376349644	1510
7	4766	23.578388589644	1510
7	4775	23.578400829644	1510
7	4784	23.578413069644	1510
7	5061	24.742929916175	1510
7	5062	24.742929916175	1510
7	5071	24.742942156175	1510
7	5085	24.742966636175	1510
7	5086	24.742966636175	1510
7	5095	24.742978876175	1510
7	5104	24.742991116175	1510
7	5113	24.743003356175	1510
7	5428	25.907520202706	1510
7	5437	25.907532442706	1510
7	5448	25.907544682706	1510
7	5449	25.907544682706	1510
7	5458	25.907556922706	1510
7	5467	25.907569162706	1510
7	5476	25.907581402706	1510
7	5485	25.907593642706	1510
7	5494	25.907605882706	1510
7	5847	27.072110489237	1510
7	5856	27.072122729237	1510
7	5865	27.072134969237	1510
7	5874	27.072147209237	1510
7	5885	27.072159449237	1510
7	5886	27.072159449237	1510
7	5895	27.072171689237	1510
7	5904	27.072183929237	1510
7	5913	27.072196169237	1510
7	5922	27.072208409237	1510
7	6284	28.236700775768	1510
7	6293	28.236713015768	1510
7	6302	28.236725255768	1510
7	6319	28.236774215768	1510
7	6503	29.401364502299	1510
7	6504	29.401364502299	1510
7	6593	30.56595478883	1510
7	6594	30.56595478883	1510
7	6605	30.56596702883	1510
7	6606	30.56596702883	1510
7	6734	31.730545075361	1510
7	6735	31.730545075361	1510
7	6828	32.895135361892	1510
7	6869	33.943329983191	1510
7	6894	34.059725648423	1510
7	6895	34.059725648423	1510
7	7016	35.224315934954	1510
7	7025	35.224328174954	1510
7	7099	36.388906221485	1510
7	7100	36.388906221485	1510
7	7189	37.553496508016	1510
7	7190	37.553496508016	1510
8	6	0	1
8	6	0	0
8	20	0.014814584551	1
8	20	0.014814584551	0
8	111	2.329111261062	1
8	111	2.329111261062	0
8	117	2.329111261062	1
8	119	2.329111933062	0
8	189	3.493702219593	1
8	189	3.493702219593	0
8	190	3.493702219593	1
8	192	3.493714459593	0
8	279	4.658292506124	1
8	279	4.658292506124	0
8	280	4.658292506124	1
8	283	4.658304746124	0
8	291	4.658304746124	1
8	292	4.658304746124	2
8	294	4.658316986124	1
8	296	4.658329226124	0
8	459	5.822882792655	1
8	459	5.822882792655	0
8	460	5.822882792655	1
8	463	5.822895032655	0
8	471	5.822895032655	1
8	472	5.822895032655	2
8	475	5.822907272655	1
8	483	5.822907272655	2
8	484	5.822907272655	3
8	487	5.822919512655	2
8	495	5.822919512655	3
8	496	5.822919512655	4
8	498	5.822931752655	3
8	500	5.822943992655	2
8	502	5.822956232655	1
8	504	5.822968472655	0
8	819	6.987473079186	1
8	819	6.987473079186	0
8	820	6.987473079186	1
8	823	6.987485319186	0
8	831	6.987485319186	1
8	832	6.987485319186	2
8	835	6.987497559186	1
8	843	6.987497559186	2
8	844	6.987497559186	3
8	847	6.987509799186	2
8	855	6.987509799186	3
8	856	6.987509799186	4
8	859	6.987522039186	3
8	867	6.987522039186	4
8	868	6.987522039186	5
8	871	6.987534279186	4
8	879	6.987534279186	5
8	880	6.987534279186	6
8	883	6.987546519186	5
8	891	6.987546519186	6
8	892	6.987546519186	7
8	895	6.987558759186	6
8	903	6.987558759186	7
8	904	6.987558759186	8
8	906	6.987570999186	7
8	908	6.987583239186	6
8	910	6.987595479186	5
8	912	6.987607719186	4
8	914	6.987619959186	3
8	916	6.987632199186	2
8	918	6.987644439186	1
8	920	6.987656679186	0
8	1539	8.152063365717	1
8	1539	8.152063365717	0
8	1540	8.152063365717	1
8	1543	8.152075605717	0
8	1551	8.152075605717	1
8	1552	8.152075605717	2
8	1555	8.152087845717	1
8	1563	8.152087845717	2
8	1564	8.152087845717	3
8	1567	8.152100085717	2
8	1575	8.152100085717	3
8	1576	8.152100085717	4
8	1579	8.152112325717	3
8	1587	8.152112325717	4
8	1588	8.152112325717	5
8	1591	8.152124565717	4
8	1599	8.152124565717	5
8	1600	8.152124565717	6
8	1603	8.152136805717	5
8	1611	8.152136805717	6
8	1612	8.152136805717	7
8	1615	8.152149045717	6
8	1623	8.152149045717	7
8	1624	8.152149045717	8
8	1627	8.152161285717	7
8	1635	8.152161285717	8
8	1636	8.152161285717	9
8	1639	8.152173525717	8
8	1647	8.152173525717	9
8	1648	8.152173525717	10
8	1651	8.152185765717	9
8	1659	8.152185765717	10
8	1660	8.152185765717	11
8	1663	8.152198005717	10
8	1671	8.152198005717	11
8	1672	8.152198005717	12
8	1675	8.152210245717	11
8	1683	8.152210245717	12
8	1684	8.152210245717	13
8	1687	8.152222485717	12
8	1695	8.152222485717	13
8	1696	8.152222485717	14
8	1699	8.152234725717	13
8	1707	8.152234725717	14
8	1708	8.152234725717	15
8	1711	8.152246965717	14
8	1719	8.152246965717	15
8	1720	8.152246965717	16
8	1722	8.152259205717	15
8	1724	8.152271445717	14
8	1726	8.152283685717	13
8	1728	8.152295925717	12
8	1730	8.152308165717	11
8	1732	8.152320405717	10
8	1734	8.152332645717	9
8	1736	8.152344885717	8
8	1738	8.152357125717	7
8	1740	8.152369365717	6
8	1742	8.152381605717	5
8	1744	8.152393845717	4
8	1746	8.152406085717	3
8	1748	8.152418325717	2
8	1750	8.152430565717	1
8	1752	8.152442805717	0
8	2906	9.316653652248	1
8	2906	9.316653652248	0
8	2907	9.316653652248	1
8	2910	9.316665892248	0
8	2918	9.316665892248	1
8	2919	9.316665892248	2
8	2922	9.316678132248	1
8	2930	9.316678132248	2
8	2931	9.316678132248	3
8	2933	9.316690372248	2
8	2936	9.316702612248	1
8	2942	9.316714852248	0
8	2954	9.316727092248	1
8	2954	9.316727092248	0
8	3344	14.261617337396	1
8	3344	14.261617337396	0
8	3393	15.426207623927	1
8	3393	15.426207623927	0
8	3394	15.426207623927	1
8	3396	15.426219863927	0
8	3481	16.590797910458	1
8	3481	16.590797910458	0
8	3490	16.590810150458	1
8	3490	16.590810150458	0
8	3577	17.755388196989	1
8	3577	17.755388196989	0
8	3578	17.755388196989	1
8	3581	17.755400436989	0
8	3587	17.755400436989	1
8	3589	17.755412676989	0
8	3712	18.91997848352	1
8	3712	18.91997848352	0
8	3723	18.91999072352	1
8	3723	18.91999072352	0
8	3724	18.91999072352	1
8	3727	18.92000296352	0
8	3733	18.92000296352	1
8	3735	18.92001520352	0
8	3896	20.084568770051	1
8	3896	20.084568770051	0
8	3905	20.084581010051	1
8	3905	20.084581010051	0
8	3914	20.084593250051	1
8	3914	20.084593250051	0
8	3925	20.084605490051	1
8	3925	20.084605490051	0
8	3926	20.084605490051	1
8	3928	20.084617730051	0
8	4127	21.249159056582	1
8	4127	21.249159056582	0
8	4136	21.249171296582	1
8	4136	21.249171296582	0
8	4145	21.249183536582	1
8	4145	21.249183536582	0
8	4154	21.249195776582	1
8	4154	21.249195776582	0
8	4165	21.249208016582	1
8	4165	21.249208016582	0
8	4166	21.249208016582	1
8	4168	21.249220256582	0
8	4405	22.413749343113	1
8	4405	22.413749343113	0
8	4414	22.413761583113	1
8	4414	22.413761583113	0
8	4423	22.413773823113	1
8	4423	22.413773823113	0
8	4432	22.413786063113	1
8	4432	22.413786063113	0
8	4441	22.413798303113	1
8	4441	22.413798303113	0
8	4452	22.413810543113	1
8	4452	22.413810543113	0
8	4453	22.413810543113	1
8	4455	22.413822783113	0
8	4730	23.578339629644	1
8	4730	23.578339629644	0
8	4739	23.578351869644	1
8	4739	23.578351869644	0
8	4748	23.578364109644	1
8	4748	23.578364109644	0
8	4757	23.578376349644	1
8	4757	23.578376349644	0
8	4766	23.578388589644	1
8	4766	23.578388589644	0
8	4775	23.578400829644	1
8	4775	23.578400829644	0
8	4784	23.578413069644	1
8	4784	23.578413069644	0
8	5061	24.742929916175	1
8	5061	24.742929916175	0
8	5062	24.742929916175	1
8	5065	24.742942156175	0
8	5071	24.742942156175	1
8	5074	24.742954396175	0
8	5085	24.742966636175	1
8	5085	24.742966636175	0
8	5086	24.742966636175	1
8	5089	24.742978876175	0
8	5095	24.742978876175	1
8	5098	24.742991116175	0
8	5104	24.742991116175	1
8	5107	24.743003356175	0
8	5113	24.743003356175	1
8	5115	24.743015596175	0
8	5428	25.907520202706	1
8	5428	25.907520202706	0
8	5437	25.907532442706	1
8	5437	25.907532442706	0
8	5448	25.907544682706	1
8	5448	25.907544682706	0
8	5449	25.907544682706	1
8	5452	25.907556922706	0
8	5458	25.907556922706	1
8	5461	25.907569162706	0
8	5467	25.907569162706	1
8	5470	25.907581402706	0
8	5476	25.907581402706	1
8	5479	25.907593642706	0
8	5485	25.907593642706	1
8	5488	25.907605882706	0
8	5494	25.907605882706	1
8	5496	25.907618122706	0
8	5847	27.072110489237	1
8	5847	27.072110489237	0
8	5856	27.072122729237	1
8	5856	27.072122729237	0
8	5865	27.072134969237	1
8	5865	27.072134969237	0
8	5874	27.072147209237	1
8	5874	27.072147209237	0
8	5885	27.072159449237	1
8	5885	27.072159449237	0
8	5886	27.072159449237	1
8	5889	27.072171689237	0
8	5895	27.072171689237	1
8	5898	27.072183929237	0
8	5904	27.072183929237	1
8	5907	27.072196169237	0
8	5913	27.072196169237	1
8	5916	27.072208409237	0
8	5922	27.072208409237	1
8	5924	27.072220649237	0
8	6284	28.236700775768	1
8	6284	28.236700775768	0
8	6293	28.236713015768	1
8	6293	28.236713015768	0
8	6302	28.236725255768	1
8	6302	28.236725255768	0
8	6319	28.236774215768	1
8	6319	28.236774215768	0
8	6503	29.401364502299	1
8	6503	29.401364502299	0
8	6504	29.401364502299	1
8	6506	29.401376742299	0
8	6593	30.56595478883	1
8	6593	30.56595478883	0
8	6594	30.56595478883	1
8	6597	30.56596702883	0
8	6605	30.56596702883	1
8	6606	30.56596702883	2
8	6608	30.56597926883	1
8	6610	30.56599150883	0
8	6734	31.730545075361	1
8	6734	31.730545075361	0
8	6735	31.730545075361	1
8	6737	31.730557315361	0
8	6828	32.895135361892	1
8	6828	32.895135361892	0
8	6869	33.943329983191	1
8	6869	33.943329983191	0
8	6894	34.059725648423	1
8	6894	34.059725648423	0
8	6895	34.059725648423	1
8	6897	34.059737888423	0
8	7016	35.224315934954	1
8	7016	35.224315934954	0
8	7025	35.224328174954	1
8	7025	35.224328174954	0
8	7099	36.388906221485	1
8	7099	36.388906221485	0
8	7100	36.388906221485	1
8	7102	36.388918461485	0
8	7189	37.553496508016	1
8	7189	37.553496508016	0
8	7190	37.553496508016	1
9	6	0	64
9	20	0.014814584551	66
9	111	2.329111261062	64
9	119	2.329111933062	1510
9	189	3.493702219593	1510
9	192	3.493714459593	1510
9	279	4.658292506124	1510
9	283	4.658304746124	1510
9	294	4.658316986124	1510
9	296	4.658329226124	1510
9	459	5.822882792655	1510
9	463	5.822895032655	1510
9	475	5.822907272655	1510
9	487	5.822919512655	1510
9	498	5.822931752655	1510
9	500	5.822943992655	1510
9	502	5.822956232655	1510
9	504	5.822968472655	1510
9	819	6.987473079186	1510
9	823	6.987485319186	1510
9	835	6.987497559186	1510
9	847	6.987509799186	1510
9	859	6.987522039186	1510
9	871	6.987534279186	1510
9	883	6.987546519186	1510
9	895	6.987558759186	1510
9	906	6.987570999186	1510
9	908	6.987583239186	1510
9	910	6.987595479186	1510
9	912	6.987607719186	1510
9	914	6.987619959186	1510
9	916	6.987632199186	1510
9	918	6.987644439186	1510
9	920	6.987656679186	1510
9	1539	8.152063365717	1510
9	1543	8.152075605717	1510
9	1555	8.152087845717	1510
9	1567	8.152100085717	1510
9	1579	8.152112325717	1510
9	1591	8.152124565717	1510
9	1603	8.152136805717	1510
9	1615	8.152149045717	1510
9	1627	8.152161285717	1510
9	1639	8.152173525717	1510
9	1651	8.152185765717	1510
9	1663	8.152198005717	1510
9	1675	8.152210245717	1510
9	1687	8.152222485717	1510
9	1699	8.152234725717	1510
9	1711	8.152246965717	1510
9	1722	8.152259205717	1510
9	1724	8.152271445717	1510
9	1726	8.152283685717	1510
9	1728	8.152295925717	1510
9	1730	8.152308165717	1510
9	1732	8.152320405717	1510
9	1734	8.152332645717	1510
9	1736	8.152344885717	1510
9	1738	8.152357125717	1510
9	1740	8.152369365717	1510
9	1742	8.152381605717	1510
9	1744	8.152393845717	1510
9	1746	8.152406085717	1510
9	1748	8.152418325717	1510
9	1750	8.152430565717	1510
9	1752	8.152442805717	1510
9	2906	9.316653652248	1510
9	2910	9.316665892248	1510
9	2922	9.316678132248	1510
9	2933	9.316690372248	1510
9	2936	9.316702612248	1510
9	2942	9.316714852248	1510
9	2954	9.316727092248	1510
9	3344	14.261617337396	1510
9	3393	15.426207623927	1510
9	3396	15.426219863927	1510
9	3481	16.590797910458	1510
9	3490	16.590810150458	1510
9	3577	17.755388196989	1510
9	3581	17.755400436989	1510
9	3589	17.755412676989	1510
9	3712	18.91997848352	1510
9	3723	18.91999072352	1510
9	3727	18.92000296352	1510
9	3735	18.92001520352	1510
9	3896	20.084568770051	1510
9	3905	20.084581010051	1510
9	3914	20.084593250051	1510
9	3925	20.084605490051	1510
9	3928	20.084617730051	1510
9	4127	21.249159056582	1510
9	4136	21.249171296582	1510
9	4145	21.249183536582	1510
9	4154	21.249195776582	1510
9	4165	21.249208016582	1510
9	4168	21.249220256582	1510
9	4405	22.413749343113	1510
9	4414	22.413761583113	1510
9	4423	22.413773823113	1510
9	4432	22.413786063113	1510
9	4441	22.413798303113	1510
9	4452	22.413810543113	1510
9	4455	22.413822783113	1510
9	4730	23.578339629644	1510
9	4739	23.578351869644	1510
9	4748	23.578364109644	1510
9	4757	23.578376349644	1510
9	4766	23.578388589644	1510
9	4775	23.578400829644	1510
9	4784	23.578413069644	1510
9	5061	24.742929916175	1510
9	5065	24.742942156175	1510
9	5074	24.742954396175	1510
9	5085	24.742966636175	1510
9	5089	24.742978876175	1510
9	5098	24.742991116175	1510
9	5107	24.743003356175	1510
9	5115	24.743015596175	1510
9	5428	25.907520202706	1510
9	5437	25.907532442706	1510
9	5448	25.907544682706	1510
9	5452	25.907556922706	1510
9	5461	25.907569162706	1510
9	5470	25.907581402706	1510
9	5479	25.907593642706	1510
9	5488	25.907605882706	1510
9	5496	25.907618122706	1510
9	5847	27.072110489237	1510
9	5856	27.072122729237	1510
9	5865	27.072134969237	1510
9	5874	27.072147209237	1510
9	5885	27.072159449237	1510
9	5889	27.072171689237	1510
9	5898	27.072183929237	1510
9	5907	27.072196169237	1510
9	5916	27.072208409237	1510
9	5924	27.072220649237	1510
9	6284	28.236700775768	1510
9	6293	28.236713015768	1510
9	6302	28.236725255768	1510
9	6319	28.236774215768	1510
9	6503	29.401364502299	1510
9	6506	29.401376742299	1510
9	6593	30.56595478883	1510
9	6597	30.56596702883	1510
9	6608	30.56597926883	1510
9	6610	30.56599150883	1510
9	6734	31.730545075361	1510
9	6737	31.730557315361	1510
9	6828	32.895135361892	1510
9	6869	33.943329983191	1510
9	6894	34.059725648423	1510
9	6897	34.059737888423	1510
9	7016	35.224315934954	1510
9	7025	35.224328174954	1510
9	7099	36.388906221485	1510
9	7102	36.388918461485	1510
9	7189	37.553496508016	1510
10	6	0	0
10	20	0.014814584551	0
10	111	2.329111261062	0
10	119	2.329111933062	6.72e-07
10	189	3.493702219593	0
10	192	3.493714459593	1.224e-05
10	279	4.658292506124	0
10	283	4.658304746124	1.224e-05
10	294	4.658316986124	1.224e-05
10	296	4.658329226124	2.448e-05
10	459	5.822882792655	0
10	463	5.822895032655	1.224e-05
10	475	5.822907272655	1.224e-05
10	487	5.822919512655	2.448e-05
10	498	5.822931752655	2.448e-05
10	500	5.822943992655	3.672e-05
10	502	5.822956232655	3.672e-05
10	504	5.822968472655	4.896e-05
10	819	6.987473079186	0
10	823	6.987485319186	1.224e-05
10	835	6.987497559186	1.224e-05
10	847	6.987509799186	2.448e-05
10	859	6.987522039186	2.448e-05
10	871	6.987534279186	3.672e-05
10	883	6.987546519186	3.672e-05
10	895	6.987558759186	4.896e-05
10	906	6.987570999186	4.896e-05
10	908	6.987583239186	6.12e-05
10	910	6.987595479186	6.12e-05
10	912	6.987607719186	7.344e-05
10	914	6.987619959186	7.344e-05
10	916	6.987632199186	8.568e-05
10	918	6.987644439186	8.568e-05
10	920	6.987656679186	9.792e-05
10	1539	8.152063365717	0
10	1543	8.152075605717	1.224e-05
10	1555	8.152087845717	1.224e-05
10	1567	8.152100085717	2.448e-05
10	1579	8.152112325717	2.448e-05
10	1591	8.152124565717	3.672e-05
10	1603	8.152136805717	3.672e-05
10	1615	8.152149045717	4.896e-05
10	1627	8.152161285717	4.896e-05
10	1639	8.152173525717	6.12e-05
10	1651	8.152185765717	6.12e-05
10	1663	8.152198005717	7.344e-05
10	1675	8.152210245717	7.344e-05
10	1687	8.152222485717	8.568e-05
10	1699	8.152234725717	8.568e-05
10	1711	8.152246965717	9.792e-05
10	1722	8.152259205717	9.792e-05
10	1724	8.152271445717	0.00011016
10	1726	8.152283685717	0.00011016
10	1728	8.152295925717	0.0001224
10	1730	8.152308165717	0.0001224
10	1732	8.152320405717	0.00013464
10	1734	8.152332645717	0.00013464
10	1736	8.152344885717	0.00014688
10	1738	8.152357125717	0.00014688
10	1740	8.152369365717	0.00015912
10	1742	8.152381605717	0.00015912
10	1744	8.152393845717	0.00017136
10	1746	8.152406085717	0.00017136
10	1748	8.152418325717	0.0001836
10	1750	8.152430565717	0.0001836
10	1752	8.152442805717	0.00019584
10	2906	9.316653652248	0
10	2910	9.316665892248	1.224e-05
10	2922	9.316678132248	1.224e-05
10	2933	9.316690372248	2.448e-05
10	2936	9.316702612248	2.448e-05
10	2942	9.316714852248	3.672e-05
10	2954	9.316727092248	0
10	3344	14.261617337396	0
10	3393	15.426207623927	0
10	3396	15.426219863927	1.224e-05
10	3481	16.590797910458	0
10	3490	16.590810150458	0
10	3577	17.755388196989	0
10	3581	17.755400436989	1.224e-05
10	3589	17.755412676989	1.224e-05
10	3712	18.91997848352	0
10	3723	18.91999072352	0
10	3727	18.92000296352	1.224e-05
10	3735	18.92001520352	1.224e-05
10	3896	20.084568770051	0
10	3905	20.084581010051	0
10	3914	20.084593250051	0
10	3925	20.084605490051	0
10	3928	20.084617730051	1.224e-05
10	4127	21.249159056582	0
10	4136	21.249171296582	0
10	4145	21.249183536582	0
10	4154	21.249195776582	0
10	4165	21.249208016582	0
10	4168	21.249220256582	1.224e-05
10	4405	22.413749343113	0
10	4414	22.413761583113	0
10	4423	22.413773823113	0
10	4432	22.413786063113	0
10	4441	22.413798303113	0
10	4452	22.413810543113	0
10	4455	22.413822783113	1.224e-05
10	4730	23.578339629644	0
10	4739	23.578351869644	0
10	4748	23.578364109644	0
10	4757	23.578376349644	0
10	4766	23.578388589644	0
10	4775	23.578400829644	0
10	4784	23.578413069644	0
10	5061	24.742929916175	0
10	5065	24.742942156175	1.224e-05
10	5074	24.742954396175	1.224e-05
10	5085	24.742966636175	0
10	5089	24.742978876175	1.224e-05
10	5098	24.742991116175	1.224e-05
10	5107	24.743003356175	1.224e-05
10	5115	24.743015596175	1.224e-05
10	5428	25.907520202706	0
10	5437	25.907532442706	0
10	5448	25.907544682706	0
10	5452	25.907556922706	1.224e-05
10	5461	25.907569162706	1.224e-05
10	5470	25.907581402706	1.224e-05
10	5479	25.907593642706	1.224e-05
10	5488	25.907605882706	1.224e-05
10	5496	25.907618122706	1.224e-05
10	5847	27.072110489237	0
10	5856	27.072122729237	0
10	5865	27.072134969237	0
10	5874	27.072147209237	0
10	5885	27.072159449237	0
10	5889	27.072171689237	1.224e-05
10	5898	27.072183929237	1.224e-05
10	5907	27.072196169237	1.224e-05
10	5916	27.072208409237	1.224e-05
10	5924	27.072220649237	1.224e-05
10	6284	28.236700775768	0
10	6293	28.236713015768	0
10	6302	28.236725255768	0
10	6319	28.236774215768	0
10	6503	29.401364502299	0
10	6506	29.401376742299	1.224e-05
10	6593	30.56595478883	0
10	6597	30.56596702883	1.224e-05
10	6608	30.56597926883	1.224e-05
10	6610	30.56599150883	2.448e-05
10	6734	31.730545075361	0
10	6737	31.730557315361	1.224e-05
10	6828	32.895135361892	0
10	6869	33.943329983191	0
10	6894	34.059725648423	0
10	6897	34.059737888423	1.224e-05
10	7016	35.224315934954	0
10	7025	35.224328174954	0
10	7099	36.388906221485	0
10	7102	36.388918461485	1.224e-05
10	7189	37.553496508016	0
11	7	0.000000576	64
11	21	0.014815176551	66
11	118	2.329111837062	64
11	120	2.329124077062	1510
11	191	3.493714363593	1510
11	193	3.493726603593	1510
11	281	4.658304650124	1510
11	293	4.658316890124	1510
11	295	4.658329130124	1510
11	297	4.658341370124	1510
11	461	5.822894936655	1510
11	473	5.822907176655	1510
11	485	5.822919416655	1510
11	497	5.822931656655	1510
11	499	5.822943896655	1510
11	501	5.822956136655	1510
11	503	5.822968376655	1510
11	505	5.822980616655	1510
11	821	6.987485223186	1510
11	833	6.987497463186	1510
11	845	6.987509703186	1510
11	857	6.987521943186	1510
11	869	6.987534183186	1510
11	881	6.987546423186	1510
11	893	6.987558663186	1510
11	905	6.987570903186	1510
11	907	6.987583143186	1510
11	909	6.987595383186	1510
11	911	6.987607623186	1510
11	913	6.987619863186	1510
11	915	6.987632103186	1510
11	917	6.987644343186	1510
11	919	6.987656583186	1510
11	921	6.987668823186	1510
11	1541	8.152075509717	1510
11	1553	8.152087749717	1510
11	1565	8.152099989717	1510
11	1577	8.152112229717	1510
11	1589	8.152124469717	1510
11	1601	8.152136709717	1510
11	1613	8.152148949717	1510
11	1625	8.152161189717	1510
11	1637	8.152173429717	1510
11	1649	8.152185669717	1510
11	1661	8.152197909717	1510
11	1673	8.152210149717	1510
11	1685	8.152222389717	1510
11	1697	8.152234629717	1510
11	1709	8.152246869717	1510
11	1721	8.152259109717	1510
11	1723	8.152271349717	1510
11	1725	8.152283589717	1510
11	1727	8.152295829717	1510
11	1729	8.152308069717	1510
11	1731	8.152320309717	1510
11	1733	8.152332549717	1510
11	1735	8.152344789717	1510
11	1737	8.152357029717	1510
11	1739	8.152369269717	1510
11	1741	8.152381509717	1510
11	1743	8.152393749717	1510
11	1745	8.152405989717	1510
11	1747	8.152418229717	1510
11	1749	8.152430469717	1510
11	1751	8.152442709717	1510
11	1753	8.152454949717	1510
11	2908	9.316665796248	1510
11	2920	9.316678036248	1510
11	2932	9.316690276248	1510
11	2934	9.316702516248	1510
11	2940	9.316714756248	1510
11	2946	9.316726996248	1510
11	2955	9.316739236248	1510
11	3345	14.261629481396	1510
11	3395	15.426219767927	1510
11	3397	15.426232007927	1510
11	3482	16.590810054458	1510
11	3491	16.590822294458	1510
11	3579	17.755400340989	1510
11	3588	17.755412580989	1510
11	3590	17.755424820989	1510
11	3713	18.91999062752	1510
11	3725	18.92000286752	1510
11	3734	18.92001510752	1510
11	3736	18.92002734752	1510
11	3897	20.084580914051	1510
11	3906	20.084593154051	1510
11	3915	20.084605394051	1510
11	3927	20.084617634051	1510
11	3929	20.084629874051	1510
11	4128	21.249171200582	1510
11	4137	21.249183440582	1510
11	4146	21.249195680582	1510
11	4155	21.249207920582	1510
11	4167	21.249220160582	1510
11	4169	21.249232400582	1510
11	4406	22.413761487113	1510
11	4415	22.413773727113	1510
11	4424	22.413785967113	1510
11	4433	22.413798207113	1510
11	4442	22.413810447113	1510
11	4454	22.413822687113	1510
11	4456	22.413834927113	1510
11	4731	23.578351773644	1510
11	4740	23.578364013644	1510
11	4749	23.578376253644	1510
11	4758	23.578388493644	1510
11	4767	23.578400733644	1510
11	4776	23.578412973644	1510
11	4785	23.578425213644	1510
11	5063	24.742942060175	1510
11	5072	24.742954300175	1510
11	5075	24.742966540175	1510
11	5087	24.742978780175	1510
11	5096	24.742991020175	1510
11	5105	24.743003260175	1510
11	5114	24.743015500175	1510
11	5116	24.743027740175	1510
11	5429	25.907532346706	1510
11	5438	25.907544586706	1510
11	5450	25.907556826706	1510
11	5459	25.907569066706	1510
11	5468	25.907581306706	1510
11	5477	25.907593546706	1510
11	5486	25.907605786706	1510
11	5495	25.907618026706	1510
11	5497	25.907630266706	1510
11	5848	27.072122633237	1510
11	5857	27.072134873237	1510
11	5866	27.072147113237	1510
11	5875	27.072159353237	1510
11	5887	27.072171593237	1510
11	5896	27.072183833237	1510
11	5905	27.072196073237	1510
11	5914	27.072208313237	1510
11	5923	27.072220553237	1510
11	5925	27.072232793237	1510
11	6285	28.236712919768	1510
11	6294	28.236725159768	1510
11	6303	28.236737399768	1510
11	6320	28.236786359768	1510
11	6505	29.401376646299	1510
11	6507	29.401388886299	1510
11	6595	30.56596693283	1510
11	6607	30.56597917283	1510
11	6609	30.56599141283	1510
11	6611	30.56600365283	1510
11	6736	31.730557219361	1510
11	6738	31.730569459361	1510
11	6829	32.895147505892	1510
11	6870	33.943342127191	1510
11	6896	34.059737792423	1510
11	6898	34.059750032423	1510
11	7017	35.224328078954	1510
11	7026	35.224340318954	1510
11	7101	36.388918365485	1510
11	7103	36.388930605485	1510
11	7191	37.553508652016	1510
12	9	0.007894595656	64
12	23	0.022709196207	66
12	122	2.337005856718	64
12	129	2.337018096718	1510
12	195	3.501608383249	1510
12	201	3.501620623249	1510
12	299	4.66619866978	1510
12	305	4.66621090978	1510
12	312	4.66622314978	1510
12	319	4.66623538978	1510
12	507	5.830788956311	1510
12	513	5.830801196311	1510
12	520	5.830813436311	1510
12	527	5.830825676311	1510
12	534	5.830837916311	1510
12	541	5.830850156311	1510
12	548	5.830862396311	1510
12	555	5.830874636311	1510
12	923	6.995379242842	1510
12	929	6.995391482842	1510
12	936	6.995403722842	1510
12	943	6.995415962842	1510
12	950	6.995428202842	1510
12	957	6.995440442842	1510
12	964	6.995452682842	1510
12	971	6.995464922842	1510
12	978	6.995477162842	1510
12	985	6.995489402842	1510
12	992	6.995501642842	1510
12	999	6.995513882842	1510
12	1006	6.995526122842	1510
12	1013	6.995538362842	1510
12	1020	6.995550602842	1510
12	1027	6.995562842842	1510
12	1755	8.159969529373	1510
12	1761	8.159981769373	1510
12	1768	8.159994009373	1510
12	1775	8.160006249373	1510
12	1782	8.160018489373	1510
12	1789	8.160030729373	1510
12	1796	8.160042969373	1510
12	1803	8.160055209373	1510
12	1810	8.160067449373	1510
12	1817	8.160079689373	1510
12	1824	8.160091929373	1510
12	1831	8.160104169373	1510
12	1838	8.160116409373	1510
12	1845	8.160128649373	1510
12	1852	8.160140889373	1510
12	1859	8.160153129373	1510
12	1866	8.160165369373	1510
12	1873	8.160177609373	1510
12	1880	8.160189849373	1510
12	1887	8.160202089373	1510
12	1894	8.160214329373	1510
12	1901	8.160226569373	1510
12	1908	8.160238809373	1510
12	1915	8.160251049373	1510
12	1922	8.160263289373	1510
12	1929	8.160275529373	1510
12	1936	8.160287769373	1510
12	1943	8.160300009373	1510
12	1950	8.160312249373	1510
12	1957	8.160324489373	1510
12	1964	8.160336729373	1510
12	1971	8.160348969373	1510
12	3053	9.324559815904	1510
12	3059	9.324572055904	1510
12	3066	9.324584295904	1510
12	3073	9.324596535904	1510
12	3080	9.324608775904	1510
12	3087	9.324621015904	1510
12	3094	9.324633255904	1510
12	3347	14.269523501052	1510
12	3399	15.434113787583	1510
12	3405	15.434126027583	1510
12	3493	16.598704074114	1510
12	3499	16.598716314114	1510
12	3592	17.763294360645	1510
12	3598	17.763306600645	1510
12	3605	17.763318840645	1510
12	3738	18.927884647176	1510
12	3744	18.927896887176	1510
12	3751	18.927909127176	1510
12	3758	18.927921367176	1510
12	3931	20.092474933707	1510
12	3937	20.092487173707	1510
12	3944	20.092499413707	1510
12	3951	20.092511653707	1510
12	3958	20.092523893707	1510
12	4171	21.257065220238	1510
12	4177	21.257077460238	1510
12	4184	21.257089700238	1510
12	4191	21.257101940238	1510
12	4198	21.257114180238	1510
12	4205	21.257126420238	1510
12	4458	22.421655506769	1510
12	4464	22.421667746769	1510
12	4471	22.421679986769	1510
12	4478	22.421692226769	1510
12	4485	22.421704466769	1510
12	4492	22.421716706769	1510
12	4499	22.421728946769	1510
12	4787	23.5862457933	1510
12	4793	23.5862580333	1510
12	4800	23.5862702733	1510
12	4807	23.5862825133	1510
12	4814	23.5862947533	1510
12	4821	23.5863069933	1510
12	4828	23.5863192333	1510
12	5118	24.750836079831	1510
12	5124	24.750848319831	1510
12	5131	24.750860559831	1510
12	5138	24.750872799831	1510
12	5145	24.750885039831	1510
12	5152	24.750897279831	1510
12	5159	24.750909519831	1510
12	5166	24.750921759831	1510
12	5499	25.915426366362	1510
12	5505	25.915438606362	1510
12	5512	25.915450846362	1510
12	5519	25.915463086362	1510
12	5526	25.915475326362	1510
12	5533	25.915487566362	1510
12	5540	25.915499806362	1510
12	5547	25.915512046362	1510
12	5554	25.915524286362	1510
12	5927	27.080016652893	1510
12	5933	27.080028892893	1510
12	5940	27.080041132893	1510
12	5947	27.080053372893	1510
12	5954	27.080065612893	1510
12	5961	27.080077852893	1510
12	5968	27.080090092893	1510
12	5975	27.080102332893	1510
12	5982	27.080114572893	1510
12	5989	27.080126812893	1510
12	6334	28.244606939424	1510
12	6340	28.244619179424	1510
12	6347	28.244631419424	1510
12	6355	28.244680379424	1510
12	6509	29.409270665955	1510
12	6515	29.409282905955	1510
12	6613	30.573860952486	1510
12	6621	30.573885432486	1510
12	6627	30.573897672486	1510
12	6748	31.738451239017	1510
12	6754	31.738463479017	1510
12	6835	32.903041525548	1510
12	6872	33.951236146847	1510
12	6900	34.067631812079	1510
12	6906	34.067644052079	1510
12	7028	35.23222209861	1510
12	7034	35.23223433861	1510
12	7105	36.396812385141	1510
12	7111	36.396824625141	1510
13	9	0.007894595656	64
13	23	0.022709196207	66
13	122	2.337005856718	64
13	129	2.337018096718	1510
13	195	3.501608383249	1510
13	201	3.501620623249	1510
13	299	4.66619866978	1510
13	305	4.66621090978	1510
13	312	4.66622314978	1510
13	319	4.66623538978	1510
13	507	5.830788956311	1510
13	513	5.830801196311	1510
13	520	5.830813436311	1510
13	527	5.830825676311	1510
13	534	5.830837916311	1510
13	541	5.830850156311	1510
13	548	5.830862396311	1510
13	555	5.830874636311	1510
13	923	6.995379242842	1510
13	929	6.995391482842	1510
13	936	6.995403722842	1510
13	943	6.995415962842	1510
13	950	6.995428202842	1510
13	957	6.995440442842	1510
13	964	6.995452682842	1510
13	971	6.995464922842	1510
13	978	6.995477162842	1510
13	985	6.995489402842	1510
13	992	6.995501642842	1510
13	999	6.995513882842	1510
13	1006	6.995526122842	1510
13	1013	6.995538362842	1510
13	1020	6.995550602842	1510
13	1027	6.995562842842	1510
13	1755	8.159969529373	1510
13	1761	8.159981769373	1510
13	1768	8.159994009373	1510
13	1775	8.160006249373	1510
13	1782	8.160018489373	1510
13	1789	8.160030729373	1510
13	1796	8.160042969373	1510
13	1803	8.160055209373	1510
13	1810	8.160067449373	1510
13	1817	8.160079689373	1510
13	1824	8.160091929373	1510
13	1831	8.160104169373	1510
13	1838	8.160116409373	1510
13	1845	8.160128649373	1510
13	1852	8.160140889373	1510
13	1859	8.160153129373	1510
13	1866	8.160165369373	1510
13	1873	8.160177609373	1510
13	1880	8.160189849373	1510
13	1887	8.160202089373	1510
13	1894	8.160214329373	1510
13	1901	8.160226569373	1510
13	1908	8.160238809373	1510
13	1915	8.160251049373	1510
13	1922	8.160263289373	1510
13	1929	8.160275529373	1510
13	1936	8.160287769373	1510
13	1943	8.160300009373	1510
13	1950	8.160312249373	1510
13	1957	8.160324489373	1510
13	1964	8.160336729373	1510
13	1971	8.160348969373	1510
13	3053	9.324559815904	1510
13	3059	9.324572055904	1510
13	3066	9.324584295904	1510
13	3073	9.324596535904	1510
13	3080	9.324608775904	1510
13	3087	9.324621015904	1510
13	3094	9.324633255904	1510
13	3347	14.269523501052	1510
13	3399	15.434113787583	1510
13	3405	15.434126027583	1510
13	3493	16.598704074114	1510
13	3499	16.598716314114	1510
13	3592	17.763294360645	1510
13	3598	17.763306600645	1510
13	3605	17.763318840645	1510
13	3738	18.927884647176	1510
13	3744	18.927896887176	1510
13	3751	18.927909127176	1510
13	3758	18.927921367176	1510
13	3931	20.092474933707	1510
13	3937	20.092487173707	1510
13	3944	20.092499413707	1510
13	3951	20.092511653707	1510
13	3958	20.092523893707	1510
[...]
89	1261	7.571977944261	1452
89	1271	7.571990184261	1452
89	1281	7.572002424261	1452
89	1291	7.572014664261	1452
89	1301	7.572026904261	1452
89	2207	8.736433590792	1452
89	2217	8.736445830792	1452
89	2227	8.736458070792	1452
89	3209	9.901097317323	24684
89	3365	14.845987562471	26136
89	3431	16.010577849002	1452
89	3441	16.010590089002	1452
89	3525	17.175168135533	1452
89	3535	17.175180375533	1452
89	3638	18.339758422064	1452
89	3648	18.339770662064	1452
89	3658	18.339782902064	1452
89	3798	19.504348708595	1452
89	3808	19.504360948595	1452
89	3818	19.504373188595	1452
89	3828	19.504385428595	1452
89	4005	20.668938995126	1452
89	4015	20.668951235126	1452
89	4025	20.668963475126	1452
89	4035	20.668975715126	1452
89	4045	20.668987955126	1452
89	4259	21.833529281657	1452
89	4269	21.833541521657	1452
89	4279	21.833553761657	1452
89	4289	21.833566001657	1452
89	4299	21.833578241657	1452
89	4309	21.833590481657	1452
89	4560	22.998119568188	1452
89	4570	22.998131808188	1452
89	4580	22.998144048188	1452
89	4590	22.998156288188	1452
89	4600	22.998168528188	1452
89	4610	22.998180768188	1452
89	4620	22.998193008188	1452
89	4889	24.162709854719	1452
89	4899	24.162722094719	1452
89	4909	24.162734334719	1452
89	4919	24.162746574719	1452
89	4929	24.162758814719	1452
89	4939	24.162771054719	1452
89	4949	24.162783294719	1452
89	5234	25.32730014125	1452
89	5244	25.32731238125	1452
89	5254	25.32732462125	1452
89	5264	25.32733686125	1452
89	5274	25.32734910125	1452
89	5284	25.32736134125	1452
89	5294	25.32737358125	1452
89	5304	25.32738582125	1452
89	5629	26.491890427781	1452
89	5639	26.491902667781	1452
89	5649	26.491914907781	1452
89	5659	26.491927147781	1452
89	5669	26.491939387781	1452
89	5679	26.491951627781	1452
89	5689	26.491963867781	1452
89	5699	26.491976107781	1452
89	5709	26.491988347781	1452
89	6071	27.656480714312	1452
89	6081	27.656492954312	1452
89	6091	27.656505194312	1452
89	6421	28.821144440843	14520
89	6541	29.985734727374	1452
89	6551	29.985746967374	1452
89	6660	31.150325013905	1452
89	6853	33.479505586967	7260
89	6955	34.644095873498	1452
89	6965	34.644108113498	1452
89	7060	35.808686160029	1452
89	7070	35.808698400029	1452
89	7137	36.97327644656	1452
89	7147	36.97328868656	1452
90	161	2.913482158137	0.584370897075
90	227	4.078072444668	1.748961183606
90	237	4.078084684668	1.748973423606
90	359	5.242662731199	2.913551470137
90	369	5.242674971199	2.913563710137
90	379	5.242687211199	2.913575950137
90	389	5.242699451199	2.913588190137
90	623	6.40725301773	4.078141756668
90	633	6.40726525773	4.078153996668
90	643	6.40727749773	4.078166236668
90	653	6.40728973773	4.078178476668
90	663	6.40730197773	4.078190716668
90	673	6.40731421773	4.078202956668
90	683	6.40732645773	4.078215196668
90	693	6.40733869773	4.078227436668
90	1151	7.571843304261	5.242732043199
90	1161	7.571855544261	5.242744283199
90	1171	7.571867784261	5.242756523199
90	1181	7.571880024261	5.242768763199
90	1191	7.571892264261	5.242781003199
90	1201	7.571904504261	5.242793243199
90	1211	7.571916744261	5.242805483199
90	1221	7.571928984261	5.242817723199
90	1231	7.571941224261	5.242829963199
90	1241	7.571953464261	5.242842203199
90	1251	7.571965704261	5.242854443199
90	1261	7.571977944261	5.242866683199
90	1271	7.571990184261	5.242878923199
90	1281	7.572002424261	5.242891163199
90	1291	7.572014664261	5.242903403199
90	1301	7.572026904261	5.242915643199
90	2207	8.736433590792	6.40732232973
90	2217	8.736445830792	6.40733456973
90	2227	8.736458070792	6.40734680973
90	3209	9.901097317323	7.571986056261
90	3209	9.901097317323	7.571986056261
90	3209	9.901097317323	7.571986056261
90	3209	9.901097317323	7.571986056261
90	3209	9.901097317323	7.571986056261
90	3209	9.901097317323	7.571986056261
90	3209	9.901097317323	7.571986056261
90	3209	9.901097317323	7.571986056261
90	3209	9.901097317323	7.571986056261
90	3209	9.901097317323	7.571986056261
90	3209	9.901097317323	7.571986056261
90	3209	9.901097317323	7.571986056261
90	3209	9.901097317323	7.571986056261
90	3209	9.901097317323	7.571986056261
90	3209	9.901097317323	7.571986056261
90	3209	9.901097317323	7.571986056261
90	3209	9.901097317323	7.571986056261
90	3365	14.845987562471	12.516876301409
90	3365	14.845987562471	12.516876301409
90	3365	14.845987562471	12.516876301409
90	3365	14.845987562471	12.516876301409
90	3365	14.845987562471	12.516876301409
90	3365	14.845987562471	12.516876301409
90	3365	14.845987562471	12.516876301409
90	3365	14.845987562471	12.516876301409
90	3365	14.845987562471	12.516876301409
90	3365	14.845987562471	12.516876301409
90	3365	14.845987562471	12.516876301409
90	3365	14.845987562471	12.516876301409
90	3365	14.845987562471	12.516876301409
90	3365	14.845987562471	12.516876301409
90	3365	14.845987562471	12.516876301409
90	3365	14.845987562471	12.516876301409
90	3365	14.845987562471	12.516876301409
90	3365	14.845987562471	12.516876301409
90	3431	16.010577849002	13.68146658794
90	3441	16.010590089002	13.68147882794
90	3525	17.175168135533	14.846056874471
90	3535	17.175180375533	14.846069114471
90	3638	18.339758422064	16.010647161002
90	3648	18.339770662064	16.010659401002
90	3658	18.339782902064	16.010671641002
90	3798	19.504348708595	17.175237447533
90	3808	19.504360948595	17.175249687533
90	3818	19.504373188595	17.175261927533
90	3828	19.504385428595	17.175274167533
90	4005	20.668938995126	18.339827734064
90	4015	20.668951235126	18.339839974064
90	4025	20.668963475126	18.339852214064
90	4035	20.668975715126	18.339864454064
90	4045	20.668987955126	18.339876694064
90	4259	21.833529281657	19.504418020595
90	4269	21.833541521657	19.504430260595
90	4279	21.833553761657	19.504442500595
90	4289	21.833566001657	19.504454740595
90	4299	21.833578241657	19.504466980595
90	4309	21.833590481657	19.504479220595
90	4560	22.998119568188	20.669008307126
90	4570	22.998131808188	20.669020547126
90	4580	22.998144048188	20.669032787126
90	4590	22.998156288188	20.669045027126
90	4600	22.998168528188	20.669057267126
90	4610	22.998180768188	20.669069507126
90	4620	22.998193008188	20.669081747126
90	4889	24.162709854719	21.833598593657
90	4899	24.162722094719	21.833610833657
90	4909	24.162734334719	21.833623073657
90	4919	24.162746574719	21.833635313657
90	4929	24.162758814719	21.833647553657
90	4939	24.162771054719	21.833659793657
90	4949	24.162783294719	21.833672033657
90	5234	25.32730014125	22.998188880188
90	5244	25.32731238125	22.998201120188
90	5254	25.32732462125	22.998213360188
90	5264	25.32733686125	22.998225600188
90	5274	25.32734910125	22.998237840188
90	5284	25.32736134125	22.998250080188
90	5294	25.32737358125	22.998262320188
90	5304	25.32738582125	22.998274560188
90	5629	26.491890427781	24.162779166719
90	5639	26.491902667781	24.162791406719
90	5649	26.491914907781	24.162803646719
90	5659	26.491927147781	24.162815886719
90	5669	26.491939387781	24.162828126719
90	5679	26.491951627781	24.162840366719
90	5689	26.491963867781	24.162852606719
90	5699	26.491976107781	24.162864846719
90	5709	26.491988347781	24.162877086719
90	6071	27.656480714312	25.32736945325
90	6081	27.656492954312	25.32738169325
90	6091	27.656505194312	25.32739393325
90	6421	28.821144440843	26.492033179781
90	6421	28.821144440843	26.492033179781
90	6421	28.821144440843	26.492033179781
90	6421	28.821144440843	26.492033179781
90	6421	28.821144440843	26.492033179781
90	6421	28.821144440843	26.492033179781
90	6421	28.821144440843	26.492033179781
90	6421	28.821144440843	26.492033179781
90	6421	28.821144440843	26.492033179781
90	6421	28.821144440843	26.492033179781
90	6541	29.985734727374	27.656623466312
90	6551	29.985746967374	27.656635706312
90	6660	31.150325013905	28.821213752843
90	6853	33.479505586967	31.150394325905
90	6853	33.479505586967	31.150394325905
90	6853	33.479505586967	31.150394325905
90	6853	33.479505586967	31.150394325905
90	6853	33.479505586967	31.150394325905
90	6955	34.644095873498	32.314984612436
90	6965	34.644108113498	32.314996852436
90	7060	35.808686160029	33.479574898967
90	7070	35.808698400029	33.479587138967
90	7137	36.97327644656	34.644165185498
90	7147	36.97328868656	34.644177425498
91	184	3.493702219593	1.164590958531
91	274	4.658292506124	1.164590286531
91	454	5.822882792655	1.164590286531
91	814	6.987473079186	1.164590286531
91	1534	8.152063365717	1.164590286531
91	2901	9.316653652248	1.164590286531
91	3478	16.590797910458	1.164590286531
91	3572	17.755388196989	1.164590286531
91	3709	18.91997848352	1.164590286531
91	3893	20.084568770051	1.164590286531
91	4124	21.249159056582	1.164590286531
91	4402	22.413749343113	1.164590286531
91	4727	23.578339629644	1.164590286531
91	5056	24.742929916175	1.164590286531
91	5425	25.907520202706	1.164590286531
91	5844	27.072110489237	1.164590286531
91	6281	28.236700775768	1.164590286531
91	6498	29.401364502299	1.164663726531
91	6588	30.56595478883	1.164590286531
91	6729	31.730545075361	1.164590286531
91	7013	35.224315934954	1.164590286531
91	7094	36.388906221485	1.164590286531
91	7184	37.553496508016	1.164590286531
92	184	3.493702219593	0.145573869816
92	274	4.658292506124	0.272950921905
92	454	5.822882792655	0.384405842483
92	814	6.987473079186	0.481928897989
92	1534	8.152063365717	0.567261571557
92	2901	9.316653652248	0.641927660929
92	3478	16.590797910458	0.707260489129
92	3572	17.755388196989	0.764426713804
92	3709	18.91997848352	0.814447160395
92	3893	20.084568770051	0.858215051162
92	4124	21.249159056582	0.896511955583
92	4402	22.413749343113	0.930021746952
92	4727	23.578339629644	0.959342814399
92	5056	24.742929916175	0.984998748416
92	5425	25.907520202706	1.00744769068
92	5844	27.072110489237	1.027090515161
92	6281	28.236700775768	1.044277986582
92	6498	29.401364502299	1.059326204076
92	6588	30.56595478883	1.072484214383
92	6729	31.730545075361	1.083997473402
92	7013	35.224315934954	1.094071575043
92	7094	36.388906221485	1.102886413979
92	7184	37.553496508016	1.110599398048
93	184	3.493702219593	0.801823869816
93	274	4.658292506124	0.828972938178
93	454	5.822882792655	0.836806241484
93	814	6.987473079186	0.829728516805
93	1534	8.152063365717	0.811345125772
93	2901	9.316653652248	0.784593074422
93	3478	16.590797910458	0.75185176832
93	3572	17.755388196989	0.715036521955
93	3709	18.91997848352	0.675677403302
93	3893	20.084568770051	0.634985618656
93	4124	21.249159056582	0.593909320745
93	4402	22.413749343113	0.55318044702
93	4727	23.578339629644	0.51335395859
93	5056	24.742929916175	0.474840647783
93	5425	25.907520202706	0.437934509075
93	5844	27.072110489237	0.402835519922
93	6281	28.236700775768	0.369668551353
93	6498	29.401364502299	0.338508199928
93	6588	30.56595478883	0.309352685244
93	6729	31.730545075361	0.282196858607
93	7013	35.224315934954	0.256996352922
93	7094	36.388906221485	0.233686647743
93	7184	37.553496508016	0.212188800844
94	184	3.493702219593	3.35286934908
94	274	4.658292506124	3.588842674617
94	454	5.822882792655	3.731630808419
94	814	6.987473079186	3.800842965209
94	1534	8.152063365717	3.812642074645
94	2901	9.316653652248	3.780299958617
94	3478	16.590797910458	3.714667562409
94	3572	17.755388196989	3.624572801624
94	3709	18.91997848352	3.517156773603
94	3893	20.084568770051	3.398157525786
94	4124	21.249159056582	3.272149238563
94	4402	22.413749343113	3.142743535032
94	4727	23.578339629644	3.012758648759
94	5056	24.742929916175	2.884361339548
94	5425	25.907520202706	2.75918572698
94	5844	27.072110489237	2.638432594849
94	6281	28.236700775768	2.522952191994
94	6498	29.401364502299	2.413359003788
94	6588	30.56595478883	2.309894955359
94	6729	31.730545075361	2.21278490783
94	7013	35.224315934954	2.122056986731
94	7094	36.388906221485	2.037633004951
94	7184	37.553496508016	1.959354601424
95	184	3.493702219593	2904
95	274	4.658292506124	4356
95	286	4.658304746124	5808
95	454	5.822882792655	7260
95	466	5.822895032655	8712
95	478	5.822907272655	10164
95	490	5.822919512655	11616
95	814	6.987473079186	13068
95	826	6.987485319186	14520
95	838	6.987497559186	15972
95	850	6.987509799186	17424
95	862	6.987522039186	18876
95	874	6.987534279186	20328
95	886	6.987546519186	21780
95	898	6.987558759186	23232
95	1534	8.152063365717	24684
95	1546	8.152075605717	26136
95	1558	8.152087845717	27588
95	1570	8.152100085717	29040
95	1582	8.152112325717	30492
95	1594	8.152124565717	31944
95	1606	8.152136805717	33396
95	1618	8.152149045717	34848
95	1630	8.152161285717	36300
95	1642	8.152173525717	37752
95	1654	8.152185765717	39204
95	1666	8.152198005717	40656
95	1678	8.152210245717	42108
95	1690	8.152222485717	43560
95	1702	8.152234725717	45012
95	1714	8.152246965717	46464
95	2901	9.316653652248	47916
95	2913	9.316665892248	49368
95	2925	9.316678132248	50820
95	2951	9.316727092248	1452
95	3340	10.481317378779	2904
95	3341	14.261617337396	1452
95	3388	15.426207623927	2904
95	3478	16.590797910458	3630
95	3487	16.590810150458	4210
95	3572	17.755388196989	4710
95	3584	17.755400436989	5157
95	3709	18.91997848352	5565
95	3718	18.91999072352	5943
95	3730	18.92000296352	6297
95	3893	20.084568770051	6631
95	3902	20.084581010051	6948
95	3911	20.084593250051	7251
95	3920	20.084605490051	7541
95	4124	21.249159056582	7820
95	4133	21.249171296582	8089
95	4142	21.249183536582	8349
95	4151	21.249195776582	8601
95	4160	21.249208016582	8846
95	4402	22.413749343113	9084
95	4411	22.413761583113	9316
95	4420	22.413773823113	9542
95	4429	22.413786063113	9762
95	4438	22.413798303113	9977
95	4447	22.413810543113	10188
95	4727	23.578339629644	10394
95	4736	23.578351869644	10596
95	4745	23.578364109644	10794
95	4754	23.578376349644	10989
95	4763	23.578388589644	11180
95	4772	23.578400829644	11368
95	4781	23.578413069644	11553
95	5056	24.742929916175	11735
95	5068	24.742942156175	11914
95	5080	24.742966636175	12090
95	5092	24.742978876175	12264
95	5101	24.742991116175	12435
95	5110	24.743003356175	12604
95	5425	25.907520202706	12771
95	5434	25.907532442706	12936
95	5443	25.907544682706	13098
95	5455	25.907556922706	13258
95	5464	25.907569162706	13417
95	5473	25.907581402706	13574
95	5482	25.907593642706	13729
95	5491	25.907605882706	13882
95	5844	27.072110489237	14033
95	5853	27.072122729237	14183
95	5862	27.072134969237	14331
95	5871	27.072147209237	14478
95	5880	27.072159449237	14623
95	5892	27.072171689237	14767
95	5901	27.072183929237	14909
95	5910	27.072196169237	15050
95	5919	27.072208409237	15190
95	6281	28.236700775768	15328
95	6290	28.236713015768	15465
95	6299	28.236725255768	15601
95	6316	28.236774215768	1452
95	6498	29.401364502299	2904
95	6588	30.56595478883	4356
95	6600	30.56596702883	5808
95	6729	31.730545075361	7260
95	6825	32.895135361892	1452
95	6866	33.943329983191	1452
95	6889	34.059725648423	2904
95	7013	35.224315934954	3630
95	7022	35.224328174954	4210
95	7094	36.388906221485	4710
95	7184	37.553496508016	5157
96	184	3.493702219593	0
96	274	4.658292506124	0
96	286	4.658304746124	0
96	454	5.822882792655	0
96	466	5.822895032655	0
96	478	5.822907272655	0
96	490	5.822919512655	0
96	814	6.987473079186	0
96	826	6.987485319186	0
96	838	6.987497559186	0
96	850	6.987509799186	0
96	862	6.987522039186	0
96	874	6.987534279186	0
96	886	6.987546519186	0
96	898	6.987558759186	0
96	1534	8.152063365717	0
96	1546	8.152075605717	0
96	1558	8.152087845717	0
96	1570	8.152100085717	0
96	1582	8.152112325717	0
96	1594	8.152124565717	0
96	1606	8.152136805717	0
96	1618	8.152149045717	0
96	1630	8.152161285717	0
96	1642	8.152173525717	0
96	1654	8.152185765717	0
96	1666	8.152198005717	0
96	1678	8.152210245717	0
96	1690	8.152222485717	0
96	1702	8.152234725717	0
96	1714	8.152246965717	0
96	2901	9.316653652248	0
96	2913	9.316665892248	0
96	2925	9.316678132248	0
96	2939	9.316702612248	1
96	2945	9.316714852248	2
96	2951	9.316727092248	3
96	2960	9.316739332248	4
96	2964	9.316751572248	5
96	2968	9.316763812248	6
96	2972	9.316776052248	7
96	2976	9.316788292248	8
96	2980	9.316800532248	9
96	2984	9.316812772248	10
96	2988	9.316825012248	11
96	2992	9.316837252248	12
96	2996	9.316849492248	13
96	3000	9.316861732248	14
96	3004	9.316873972248	15
96	3008	9.316886212248	16
96	3012	9.316910692248	17
96	3016	9.316922932248	18
96	3020	9.316935172248	19
96	3024	9.316947412248	20
96	3028	9.316959652248	21
96	3032	9.316971892248	22
96	3036	9.316984132248	23
96	3040	9.316996372248	24
96	3044	9.317008612248	25
96	3048	9.317020852248	26
96	3052	9.317033092248	27
96	3316	10.481243938779	28
96	3320	10.481256178779	29
96	3324	10.481268418779	30
96	3328	10.481280658779	31
96	3332	10.481292898779	32
96	3336	10.481305138779	33
96	3340	10.481317378779	0
96	3388	15.426207623927	0
96	3478	16.590797910458	0
96	3487	16.590810150458	0
96	3572	17.755388196989	0
96	3584	17.755400436989	0
96	3709	18.91997848352	0
96	3718	18.91999072352	0
96	3730	18.92000296352	0
96	3893	20.084568770051	0
96	3902	20.084581010051	0
96	3911	20.084593250051	0
96	3920	20.084605490051	0
96	4124	21.249159056582	0
96	4133	21.249171296582	0
96	4142	21.249183536582	0
96	4151	21.249195776582	0
96	4160	21.249208016582	0
96	4402	22.413749343113	0
96	4411	22.413761583113	0
96	4420	22.413773823113	0
96	4429	22.413786063113	0
96	4438	22.413798303113	0
96	4447	22.413810543113	0
96	4727	23.578339629644	0
96	4736	23.578351869644	0
96	4745	23.578364109644	0
96	4754	23.578376349644	0
96	4763	23.578388589644	0
96	4772	23.578400829644	0
96	4781	23.578413069644	0
96	5056	24.742929916175	0
96	5068	24.742942156175	0
96	5080	24.742966636175	0
96	5092	24.742978876175	0
96	5101	24.742991116175	0
96	5110	24.743003356175	0
96	5425	25.907520202706	0
96	5434	25.907532442706	0
96	5443	25.907544682706	0
96	5455	25.907556922706	0
96	5464	25.907569162706	0
96	5473	25.907581402706	0
96	5482	25.907593642706	0
96	5491	25.907605882706	0
96	5844	27.072110489237	0
96	5853	27.072122729237	0
96	5862	27.072134969237	0
96	5871	27.072147209237	0
96	5880	27.072159449237	0
96	5892	27.072171689237	0
96	5901	27.072183929237	0
96	5910	27.072196169237	0
96	5919	27.072208409237	0
96	6281	28.236700775768	0
96	6290	28.236713015768	0
96	6299	28.236725255768	0
96	6308	28.236749735768	1
96	6312	28.236761975768	2
96	6316	28.236774215768	3
96	6325	28.236786455768	4
96	6329	28.236798695768	5
96	6333	28.236810935768	6
96	6486	29.401291062299	7
96	6490	29.401303302299	8
96	6494	29.401315542299	9
96	6498	29.401364502299	0
96	6588	30.56595478883	0
96	6600	30.56596702883	0
96	6729	31.730545075361	0
96	6743	31.730569555361	1
96	6747	31.730581795361	2
96	6825	32.895135361892	3
96	6834	32.895147601892	4
96	6889	34.059725648423	0
96	6995	35.107920269722	1
96	7013	35.224315934954	0
96	7022	35.224328174954	0
96	7094	36.388906221485	0
96	7184	37.553496508016	0
97	2233	8.736470310792	1510
97	2378	8.736678390792	1510
97	6097	27.656517434312	1510
98	2237	8.736482550792	1
98	2246	8.736494790792	2
98	2255	8.736507030792	3
98	2264	8.736519270792	4
98	2273	8.736531510792	5
98	2282	8.736543750792	6
98	2291	8.736555990792	7
98	2300	8.736568230792	8
98	2309	8.736580470792	9
98	2318	8.736592710792	10
98	2327	8.736604950792	11
98	2336	8.736617190792	12
98	2345	8.736629430792	13
98	2354	8.736641670792	14
98	2363	8.736653910792	15
98	2372	8.736666150792	16
98	2382	8.736690630792	17
98	2391	8.736702870792	18
98	2400	8.736715110792	19
98	2409	8.736727350792	20
98	2418	8.736739590792	21
98	2427	8.736751830792	22
98	2436	8.736764070792	23
98	2445	8.736776310792	24
98	2454	8.736788550792	25
98	2463	8.736800790792	26
98	2472	8.736813030792	27
98	3154	9.901023877323	28
98	3163	9.901036117323	29
98	3172	9.901048357323	30
98	3181	9.901060597323	31
98	3190	9.901072837323	32
98	3199	9.901085077323	33
98	6101	27.656529674312	34
98	6110	27.656541914312	35
98	6119	27.656554154312	36
98	6128	27.656566394312	37
98	6137	27.656578634312	38
98	6146	27.656590874312	39
98	6393	28.821071000843	40
98	6402	28.821083240843	41
98	6411	28.821095480843	42
98	6669	31.150349493905	43
98	6678	31.150361733905	44
98	6779	32.314915300436	45
98	6788	32.314927540436	46
99	2951	9.316727092248	25410
99	3341	14.261617337396	2904
99	6316	28.236774215768	7800
99	6825	32.895135361892	3630
99	6866	33.943329983191	2904
100	3341	14.261617337396	1
100	6866	33.943329983191	2
101	5073	24.742954396175	64
102	6619	30.573873192486	1510
103	6924	34.527700208266	1
104	7083	35.81699789659	64

