version 2
run IPv4SlowMobility-0-20210629-10:59:51-32532
attr configname IPv4SlowMobility
attr datetime 20210629-10:59:51
attr experiment IPv4SlowMobility
attr inifile omnetpp.ini
attr iterationvars ""
attr iterationvarsf ""
attr measurement ""
attr network AODVNetwork
attr processid 32532
attr repetition 0
attr replication #0
attr resultdir results
attr runnumber 0
attr seedset 0
param **.aodv.activeRouteTimeout 3s
param **.host[2..20].mobility.typename "\"MassMobility\""
param **.host[0].mobility.typename "\"StationaryMobility\""
param **.host[1].mobility.typename "\"StationaryMobility\""
param **.host[*].mobility.changeInterval "normal(5s, 0.1s)"
param **.host[*].mobility.angleDelta "normal(0deg, 30deg)"
param **.host[*].mobility.speed "normal(2mps, 0.01mps)"
param **.host[1].mobility.initialX 600m
param **.host[1].mobility.initialY 600m
param *.host[*].wlan[*].radio.transmitter.communicationRange 250m
param *.host[0].app[0].destAddr "\"host[1](ipv4)\""
param **.wlan[*].typename "\"AckingWirelessInterface\""
param **.wlan[*].bitrate 2Mbps
param **.wlan[*].mac.headerLength 23B
param **.wlan[*].radio.typename "\"UnitDiskRadio\""
param **.wlan[*].radio.transmitter.headerLength 96b
param **.wlan[*].radio.transmitter.communicationRange 250m
param **.wlan[*].radio.transmitter.interferenceRange 0m
param **.wlan[*].radio.transmitter.detectionRange 0m
param **.wlan[*].radio.receiver.ignoreInterference true
param *.numHosts 20
param **.host[*].mobility.typename "\"StationaryMobility\""
param **.mobility.constraintAreaMinZ 0m
param **.mobility.constraintAreaMaxZ 0m
param **.mobility.constraintAreaMinX 0m
param **.mobility.constraintAreaMinY 0m
param **.mobility.constraintAreaMaxX 600m
param **.mobility.constraintAreaMaxY 600m
param *.host[0].numApps 1
param *.host[0].app[0].typename "\"PingApp\""
param *.host[0].app[0].startTime uniform(1s,5s)
param *.host[0].app[0].printPing true
param **.wlan[*].bitrate 2Mbps
param **.hasStatus true

vector 0 AODVNetwork.host[0].wlan[0].radio radioMode:vector ETV
attr interpolationmode sample-hold
attr source radioModeChanged
attr title "Radio mode, vector"
vector 1 AODVNetwork.host[1].wlan[0].radio radioMode:vector ETV
attr interpolationmode sample-hold
attr source radioModeChanged
attr title "Radio mode, vector"
vector 2 AODVNetwork.host[2].wlan[0].radio radioMode:vector ETV
attr interpolationmode sample-hold
attr source radioModeChanged
attr title "Radio mode, vector"
vector 3 AODVNetwork.host[3].wlan[0].radio radioMode:vector ETV
attr interpolationmode sample-hold
attr source radioModeChanged
attr title "Radio mode, vector"
vector 4 AODVNetwork.host[4].wlan[0].radio radioMode:vector ETV
attr interpolationmode sample-hold
attr source radioModeChanged
attr title "Radio mode, vector"
vector 5 AODVNetwork.host[5].wlan[0].radio radioMode:vector ETV
attr interpolationmode sample-hold
attr source radioModeChanged
attr title "Radio mode, vector"
vector 6 AODVNetwork.host[6].wlan[0].radio radioMode:vector ETV
attr interpolationmode sample-hold
attr source radioModeChanged
attr title "Radio mode, vector"
vector 7 AODVNetwork.host[7].wlan[0].radio radioMode:vector ETV
attr interpolationmode sample-hold
attr source radioModeChanged
attr title "Radio mode, vector"
vector 8 AODVNetwork.host[8].wlan[0].radio radioMode:vector ETV
attr interpolationmode sample-hold
attr source radioModeChanged
attr title "Radio mode, vector"
vector 9 AODVNetwork.host[9].wlan[0].radio radioMode:vector ETV
attr interpolationmode sample-hold
attr source radioModeChanged
attr title "Radio mode, vector"
vector 10 AODVNetwork.host[10].wlan[0].radio radioMode:vector ETV
attr interpolationmode sample-hold
attr source radioModeChanged
attr title "Radio mode, vector"
vector 11 AODVNetwork.host[11].wlan[0].radio radioMode:vector ETV
attr interpolationmode sample-hold
attr source radioModeChanged
attr title "Radio mode, vector"
vector 12 AODVNetwork.host[12].wlan[0].radio radioMode:vector ETV
attr interpolationmode sample-hold
attr source radioModeChanged
attr title "Radio mode, vector"
vector 13 AODVNetwork.host[13].wlan[0].radio radioMode:vector ETV
attr interpolationmode sample-hold
attr source radioModeChanged
attr title "Radio mode, vector"
vector 14 AODVNetwork.host[14].wlan[0].radio radioMode:vector ETV
attr interpolationmode sample-hold
attr source radioModeChanged
attr title "Radio mode, vector"
vector 15 AODVNetwork.host[15].wlan[0].radio radioMode:vector ETV
attr interpolationmode sample-hold
attr source radioModeChanged
attr title "Radio mode, vector"
vector 16 AODVNetwork.host[16].wlan[0].radio radioMode:vector ETV
attr interpolationmode sample-hold
attr source radioModeChanged
attr title "Radio mode, vector"
vector 17 AODVNetwork.host[17].wlan[0].radio radioMode:vector ETV
attr interpolationmode sample-hold
attr source radioModeChanged
attr title "Radio mode, vector"
vector 18 AODVNetwork.host[18].wlan[0].radio radioMode:vector ETV
attr interpolationmode sample-hold
attr source radioModeChanged
attr title "Radio mode, vector"
vector 19 AODVNetwork.host[19].wlan[0].radio radioMode:vector ETV
attr interpolationmode sample-hold
attr source radioModeChanged
attr title "Radio mode, vector"
vector 20 AODVNetwork.host[0].wlan[0].radio receptionState:vector ETV
attr interpolationmode sample-hold
attr source receptionStateChanged
attr title "Radio reception state, vector"
vector 21 AODVNetwork.host[0].wlan[0].radio transmissionState:vector ETV
attr interpolationmode sample-hold
attr source transmissionStateChanged
attr title "Radio transmission state, vector"
vector 22 AODVNetwork.host[1].wlan[0].radio receptionState:vector ETV
attr interpolationmode sample-hold
attr source receptionStateChanged
attr title "Radio reception state, vector"
vector 23 AODVNetwork.host[1].wlan[0].radio transmissionState:vector ETV
attr interpolationmode sample-hold
attr source transmissionStateChanged
attr title "Radio transmission state, vector"
vector 24 AODVNetwork.host[2].wlan[0].radio receptionState:vector ETV
attr interpolationmode sample-hold
attr source receptionStateChanged
attr title "Radio reception state, vector"
vector 25 AODVNetwork.host[2].wlan[0].radio transmissionState:vector ETV
attr interpolationmode sample-hold
attr source transmissionStateChanged
attr title "Radio transmission state, vector"
vector 26 AODVNetwork.host[3].wlan[0].radio receptionState:vector ETV
attr interpolationmode sample-hold
attr source receptionStateChanged
attr title "Radio reception state, vector"
vector 27 AODVNetwork.host[3].wlan[0].radio transmissionState:vector ETV
attr interpolationmode sample-hold
attr source transmissionStateChanged
attr title "Radio transmission state, vector"
vector 28 AODVNetwork.host[4].wlan[0].radio receptionState:vector ETV
attr interpolationmode sample-hold
attr source receptionStateChanged
attr title "Radio reception state, vector"
vector 29 AODVNetwork.host[4].wlan[0].radio transmissionState:vector ETV
attr interpolationmode sample-hold
attr source transmissionStateChanged
attr title "Radio transmission state, vector"
vector 30 AODVNetwork.host[5].wlan[0].radio receptionState:vector ETV
attr interpolationmode sample-hold
attr source receptionStateChanged
attr title "Radio reception state, vector"
vector 31 AODVNetwork.host[5].wlan[0].radio transmissionState:vector ETV
attr interpolationmode sample-hold
attr source transmissionStateChanged
attr title "Radio transmission state, vector"
vector 32 AODVNetwork.host[6].wlan[0].radio receptionState:vector ETV
attr interpolationmode sample-hold
attr source receptionStateChanged
attr title "Radio reception state, vector"
vector 33 AODVNetwork.host[6].wlan[0].radio transmissionState:vector ETV
attr interpolationmode sample-hold
attr source transmissionStateChanged
attr title "Radio transmission state, vector"
vector 34 AODVNetwork.host[7].wlan[0].radio receptionState:vector ETV
attr interpolationmode sample-hold
attr source receptionStateChanged
attr title "Radio reception state, vector"
vector 35 AODVNetwork.host[7].wlan[0].radio transmissionState:vector ETV
attr interpolationmode sample-hold
attr source transmissionStateChanged
attr title "Radio transmission state, vector"
vector 36 AODVNetwork.host[8].wlan[0].radio receptionState:vector ETV
attr interpolationmode sample-hold
attr source receptionStateChanged
attr title "Radio reception state, vector"
vector 37 AODVNetwork.host[8].wlan[0].radio transmissionState:vector ETV
attr interpolationmode sample-hold
attr source transmissionStateChanged
attr title "Radio transmission state, vector"
vector 38 AODVNetwork.host[9].wlan[0].radio receptionState:vector ETV
attr interpolationmode sample-hold
attr source receptionStateChanged
attr title "Radio reception state, vector"
vector 39 AODVNetwork.host[9].wlan[0].radio transmissionState:vector ETV
attr interpolationmode sample-hold
attr source transmissionStateChanged
attr title "Radio transmission state, vector"
vector 40 AODVNetwork.host[10].wlan[0].radio receptionState:vector ETV
attr interpolationmode sample-hold
attr source receptionStateChanged
attr title "Radio reception state, vector"
vector 41 AODVNetwork.host[10].wlan[0].radio transmissionState:vector ETV
attr interpolationmode sample-hold
attr source transmissionStateChanged
attr title "Radio transmission state, vector"
vector 42 AODVNetwork.host[11].wlan[0].radio receptionState:vector ETV
attr interpolationmode sample-hold
attr source receptionStateChanged
attr title "Radio reception state, vector"
vector 43 AODVNetwork.host[11].wlan[0].radio transmissionState:vector ETV
attr interpolationmode sample-hold
attr source transmissionStateChanged
attr title "Radio transmission state, vector"
vector 44 AODVNetwork.host[12].wlan[0].radio receptionState:vector ETV
attr interpolationmode sample-hold
attr source receptionStateChanged
attr title "Radio reception state, vector"
vector 45 AODVNetwork.host[12].wlan[0].radio transmissionState:vector ETV
attr interpolationmode sample-hold
attr source transmissionStateChanged
attr title "Radio transmission state, vector"
vector 46 AODVNetwork.host[13].wlan[0].radio receptionState:vector ETV
attr interpolationmode sample-hold
attr source receptionStateChanged
attr title "Radio reception state, vector"
vector 47 AODVNetwork.host[13].wlan[0].radio transmissionState:vector ETV
attr interpolationmode sample-hold
attr source transmissionStateChanged
attr title "Radio transmission state, vector"
vector 48 AODVNetwork.host[14].wlan[0].radio receptionState:vector ETV
attr interpolationmode sample-hold
attr source receptionStateChanged
attr title "Radio reception state, vector"
vector 49 AODVNetwork.host[14].wlan[0].radio transmissionState:vector ETV
attr interpolationmode sample-hold
attr source transmissionStateChanged
attr title "Radio transmission state, vector"
vector 50 AODVNetwork.host[15].wlan[0].radio receptionState:vector ETV
attr interpolationmode sample-hold
attr source receptionStateChanged
attr title "Radio reception state, vector"
vector 51 AODVNetwork.host[15].wlan[0].radio transmissionState:vector ETV
attr interpolationmode sample-hold
attr source transmissionStateChanged
attr title "Radio transmission state, vector"
vector 52 AODVNetwork.host[16].wlan[0].radio receptionState:vector ETV
attr interpolationmode sample-hold
attr source receptionStateChanged
attr title "Radio reception state, vector"
vector 53 AODVNetwork.host[16].wlan[0].radio transmissionState:vector ETV
attr interpolationmode sample-hold
attr source transmissionStateChanged
attr title "Radio transmission state, vector"
vector 54 AODVNetwork.host[17].wlan[0].radio receptionState:vector ETV
attr interpolationmode sample-hold
attr source receptionStateChanged
attr title "Radio reception state, vector"
vector 55 AODVNetwork.host[17].wlan[0].radio transmissionState:vector ETV
attr interpolationmode sample-hold
attr source transmissionStateChanged
attr title "Radio transmission state, vector"
vector 56 AODVNetwork.host[18].wlan[0].radio receptionState:vector ETV
attr interpolationmode sample-hold
attr source receptionStateChanged
attr title "Radio reception state, vector"
vector 57 AODVNetwork.host[18].wlan[0].radio transmissionState:vector ETV
attr interpolationmode sample-hold
attr source transmissionStateChanged
attr title "Radio transmission state, vector"
vector 58 AODVNetwork.host[19].wlan[0].radio receptionState:vector ETV
attr interpolationmode sample-hold
attr source receptionStateChanged
attr title "Radio reception state, vector"
vector 59 AODVNetwork.host[19].wlan[0].radio transmissionState:vector ETV
attr interpolationmode sample-hold
attr source transmissionStateChanged
attr title "Radio transmission state, vector"
vector 60 AODVNetwork.host[0].app[0] pingTxSeq:vector ETV
attr interpolationmode none
attr title "ping tx seq, vector"
vector 61 AODVNetwork.host[0].udp packetSent:vector(packetBytes) ETV
attr interpolationmode none
attr source packetSent
attr title "packets sent, vector(packetBytes)"
vector 62 AODVNetwork.host[0].wlan[0].mac rcvdPkFromHl:vector(packetBytes) ETV
attr interpolationmode none
attr source packetReceivedFromUpper
attr title "packets received from higher layer, vector(packetBytes)"
vector 63 AODVNetwork.host[0].wlan[0].mac.queue packetPushed:vector(packetBytes) ETV
attr interpolationmode none
attr title "packet pushed, vector(packetBytes)"
vector 64 AODVNetwork.host[0].wlan[0].mac.queue queueLength:vector ETV
attr interpolationmode sample-hold
attr source "count(packetPushed) - count(packetPopped) - count(packetRemoved) - count(packetDropped)"
attr title "queue length, vector"
vector 65 AODVNetwork.host[0].wlan[0].mac.queue packetPopped:vector(packetBytes) ETV
attr interpolationmode none
attr title "packet popped, vector(packetBytes)"
vector 66 AODVNetwork.host[0].wlan[0].mac.queue queueingTime:vector ETV
attr interpolationmode none
attr source queueingTime(packetPopped)
attr title "queueing times, vector"
attr unit s
vector 67 AODVNetwork.host[0].wlan[0].mac sentDownPk:vector(packetBytes) ETV
attr interpolationmode none
attr source packetSentToLower
attr title "packets sent to lower layer, vector(packetBytes)"
vector 68 AODVNetwork.host[4].wlan[0].mac rcvdPkFromLl:vector(packetBytes) ETV
attr interpolationmode none
attr source packetReceivedFromLower
attr title "packets received from lower layer, vector(packetBytes)"
vector 69 AODVNetwork.host[4].wlan[0].mac passedUpPk:vector(packetBytes) ETV
attr interpolationmode none
attr source packetSentToUpper
attr title "packets passed to higher layer, vector(packetBytes)"
vector 70 AODVNetwork.host[4].udp packetReceived:vector(packetBytes) ETV
attr interpolationmode none
attr source packetReceived
attr title "packets received, vector(packetBytes)"
vector 71 AODVNetwork.host[4].udp passedUpPk:vector(count) ETV
attr interpolationmode none
attr source packetSentToUpper
attr title "packets passed up, vector(count)"
vector 72 AODVNetwork.host[15].wlan[0].mac rcvdPkFromLl:vector(packetBytes) ETV
attr interpolationmode none
attr source packetReceivedFromLower
attr title "packets received from lower layer, vector(packetBytes)"
vector 73 AODVNetwork.host[15].wlan[0].mac passedUpPk:vector(packetBytes) ETV
attr interpolationmode none
attr source packetSentToUpper
attr title "packets passed to higher layer, vector(packetBytes)"
vector 74 AODVNetwork.host[15].udp packetReceived:vector(packetBytes) ETV
attr interpolationmode none
attr source packetReceived
attr title "packets received, vector(packetBytes)"
vector 75 AODVNetwork.host[15].udp passedUpPk:vector(count) ETV
attr interpolationmode none
attr source packetSentToUpper
attr title "packets passed up, vector(count)"
vector 76 AODVNetwork.host[4].udp packetSent:vector(packetBytes) ETV
attr interpolationmode none
attr source packetSent
attr title "packets sent, vector(packetBytes)"
vector 77 AODVNetwork.host[4].wlan[0].mac rcvdPkFromHl:vector(packetBytes) ETV
attr interpolationmode none
attr source packetReceivedFromUpper
attr title "packets received from higher layer, vector(packetBytes)"
vector 78 AODVNetwork.host[4].wlan[0].mac.queue packetPushed:vector(packetBytes) ETV
attr interpolationmode none
attr title "packet pushed, vector(packetBytes)"
vector 79 AODVNetwork.host[4].wlan[0].mac.queue queueLength:vector ETV
attr interpolationmode sample-hold
attr source "count(packetPushed) - count(packetPopped) - count(packetRemoved) - count(packetDropped)"
attr title "queue length, vector"
vector 80 AODVNetwork.host[4].wlan[0].mac.queue packetPopped:vector(packetBytes) ETV
attr interpolationmode none
attr title "packet popped, vector(packetBytes)"
vector 81 AODVNetwork.host[4].wlan[0].mac.queue queueingTime:vector ETV
attr interpolationmode none
attr source queueingTime(packetPopped)
attr title "queueing times, vector"
attr unit s
vector 82 AODVNetwork.host[4].wlan[0].mac sentDownPk:vector(packetBytes) ETV
attr interpolationmode none
attr source packetSentToLower
attr title "packets sent to lower layer, vector(packetBytes)"
vector 83 AODVNetwork.host[0].wlan[0].mac rcvdPkFromLl:vector(packetBytes) ETV
attr interpolationmode none
attr source packetReceivedFromLower
attr title "packets received from lower layer, vector(packetBytes)"
vector 84 AODVNetwork.host[0].wlan[0].mac passedUpPk:vector(packetBytes) ETV
attr interpolationmode none
attr source packetSentToUpper
attr title "packets passed to higher layer, vector(packetBytes)"
vector 85 AODVNetwork.host[0].udp packetReceived:vector(packetBytes) ETV
attr interpolationmode none
attr source packetReceived
attr title "packets received, vector(packetBytes)"
vector 86 AODVNetwork.host[0].udp passedUpPk:vector(count) ETV
attr interpolationmode none
attr source packetSentToUpper
attr title "packets passed up, vector(count)"
vector 87 AODVNetwork.host[15].udp packetSent:vector(packetBytes) ETV
attr interpolationmode none
attr source packetSent
attr title "packets sent, vector(packetBytes)"
vector 88 AODVNetwork.host[15].wlan[0].mac rcvdPkFromHl:vector(packetBytes) ETV
attr interpolationmode none
attr source packetReceivedFromUpper
attr title "packets received from higher layer, vector(packetBytes)"
vector 89 AODVNetwork.host[15].wlan[0].mac.queue packetPushed:vector(packetBytes) ETV
attr interpolationmode none
attr title "packet pushed, vector(packetBytes)"
vector 90 AODVNetwork.host[15].wlan[0].mac.queue queueLength:vector ETV
attr interpolationmode sample-hold
attr source "count(packetPushed) - count(packetPopped) - count(packetRemoved) - count(packetDropped)"
attr title "queue length, vector"
vector 91 AODVNetwork.host[15].wlan[0].mac.queue packetPopped:vector(packetBytes) ETV
attr interpolationmode none
attr title "packet popped, vector(packetBytes)"
vector 92 AODVNetwork.host[15].wlan[0].mac.queue queueingTime:vector ETV
attr interpolationmode none
attr source queueingTime(packetPopped)
attr title "queueing times, vector"
attr unit s
vector 93 AODVNetwork.host[15].wlan[0].mac sentDownPk:vector(packetBytes) ETV
attr interpolationmode none
attr source packetSentToLower
attr title "packets sent to lower layer, vector(packetBytes)"
vector 94 AODVNetwork.host[10].wlan[0].mac rcvdPkFromLl:vector(packetBytes) ETV
attr interpolationmode none
attr source packetReceivedFromLower
attr title "packets received from lower layer, vector(packetBytes)"
vector 95 AODVNetwork.host[10].wlan[0].mac passedUpPk:vector(packetBytes) ETV
attr interpolationmode none
attr source packetSentToUpper
attr title "packets passed to higher layer, vector(packetBytes)"
vector 96 AODVNetwork.host[10].udp packetReceived:vector(packetBytes) ETV
attr interpolationmode none
attr source packetReceived
attr title "packets received, vector(packetBytes)"
vector 97 AODVNetwork.host[10].udp passedUpPk:vector(count) ETV
attr interpolationmode none
attr source packetSentToUpper
attr title "packets passed up, vector(count)"
vector 98 AODVNetwork.host[19].wlan[0].mac rcvdPkFromLl:vector(packetBytes) ETV
attr interpolationmode none
attr source packetReceivedFromLower
attr title "packets received from lower layer, vector(packetBytes)"
vector 99 AODVNetwork.host[19].wlan[0].mac passedUpPk:vector(packetBytes) ETV
attr interpolationmode none
attr source packetSentToUpper
attr title "packets passed to higher layer, vector(packetBytes)"
vector 100 AODVNetwork.host[19].udp packetReceived:vector(packetBytes) ETV
attr interpolationmode none
attr source packetReceived
attr title "packets received, vector(packetBytes)"
vector 101 AODVNetwork.host[19].udp passedUpPk:vector(count) ETV
attr interpolationmode none
attr source packetSentToUpper
attr title "packets passed up, vector(count)"
vector 102 AODVNetwork.host[10].udp packetSent:vector(packetBytes) ETV
attr interpolationmode none
attr source packetSent
attr title "packets sent, vector(packetBytes)"
vector 103 AODVNetwork.host[10].wlan[0].mac rcvdPkFromHl:vector(packetBytes) ETV
attr interpolationmode none
attr source packetReceivedFromUpper
attr title "packets received from higher layer, vector(packetBytes)"
vector 104 AODVNetwork.host[10].wlan[0].mac.queue packetPushed:vector(packetBytes) ETV
attr interpolationmode none
attr title "packet pushed, vector(packetBytes)"
vector 105 AODVNetwork.host[10].wlan[0].mac.queue queueLength:vector ETV
attr interpolationmode sample-hold
attr source "count(packetPushed) - count(packetPopped) - count(packetRemoved) - count(packetDropped)"
attr title "queue length, vector"
vector 106 AODVNetwork.host[10].wlan[0].mac.queue packetPopped:vector(packetBytes) ETV
attr interpolationmode none
attr title "packet popped, vector(packetBytes)"
vector 107 AODVNetwork.host[10].wlan[0].mac.queue queueingTime:vector ETV
attr interpolationmode none
attr source queueingTime(packetPopped)
attr title "queueing times, vector"
attr unit s
vector 108 AODVNetwork.host[10].wlan[0].mac sentDownPk:vector(packetBytes) ETV
attr interpolationmode none
attr source packetSentToLower
attr title "packets sent to lower layer, vector(packetBytes)"
vector 109 AODVNetwork.host[14].wlan[0].mac rcvdPkFromLl:vector(packetBytes) ETV
attr interpolationmode none
attr source packetReceivedFromLower
attr title "packets received from lower layer, vector(packetBytes)"
vector 110 AODVNetwork.host[14].wlan[0].mac passedUpPk:vector(packetBytes) ETV
attr interpolationmode none
attr source packetSentToUpper
attr title "packets passed to higher layer, vector(packetBytes)"
vector 111 AODVNetwork.host[14].udp packetReceived:vector(packetBytes) ETV
attr interpolationmode none
attr source packetReceived
attr title "packets received, vector(packetBytes)"
vector 112 AODVNetwork.host[14].udp passedUpPk:vector(count) ETV
attr interpolationmode none
attr source packetSentToUpper
attr title "packets passed up, vector(count)"
vector 113 AODVNetwork.host[12].wlan[0].mac rcvdPkFromLl:vector(packetBytes) ETV
attr interpolationmode none
attr source packetReceivedFromLower
attr title "packets received from lower layer, vector(packetBytes)"
vector 114 AODVNetwork.host[12].wlan[0].mac passedUpPk:vector(packetBytes) ETV
attr interpolationmode none
attr source packetSentToUpper
attr title "packets passed to higher layer, vector(packetBytes)"
vector 115 AODVNetwork.host[12].udp packetReceived:vector(packetBytes) ETV
attr interpolationmode none
attr source packetReceived
attr title "packets received, vector(packetBytes)"
vector 116 AODVNetwork.host[12].udp passedUpPk:vector(count) ETV
attr interpolationmode none
attr source packetSentToUpper
attr title "packets passed up, vector(count)"
vector 117 AODVNetwork.host[11].wlan[0].mac rcvdPkFromLl:vector(packetBytes) ETV
attr interpolationmode none
attr source packetReceivedFromLower
attr title "packets received from lower layer, vector(packetBytes)"
vector 118 AODVNetwork.host[11].wlan[0].mac passedUpPk:vector(packetBytes) ETV
attr interpolationmode none
attr source packetSentToUpper
attr title "packets passed to higher layer, vector(packetBytes)"
vector 119 AODVNetwork.host[11].udp packetReceived:vector(packetBytes) ETV
attr interpolationmode none
attr source packetReceived
attr title "packets received, vector(packetBytes)"
vector 120 AODVNetwork.host[11].udp passedUpPk:vector(count) ETV
attr interpolationmode none
attr source packetSentToUpper
attr title "packets passed up, vector(count)"
vector 121 AODVNetwork.host[18].wlan[0].mac rcvdPkFromLl:vector(packetBytes) ETV
attr interpolationmode none
attr source packetReceivedFromLower
attr title "packets received from lower layer, vector(packetBytes)"
vector 122 AODVNetwork.host[18].wlan[0].mac passedUpPk:vector(packetBytes) ETV
attr interpolationmode none
attr source packetSentToUpper
attr title "packets passed to higher layer, vector(packetBytes)"
vector 123 AODVNetwork.host[18].udp packetReceived:vector(packetBytes) ETV
attr interpolationmode none
attr source packetReceived
attr title "packets received, vector(packetBytes)"
vector 124 AODVNetwork.host[18].udp passedUpPk:vector(count) ETV
attr interpolationmode none
attr source packetSentToUpper
attr title "packets passed up, vector(count)"
vector 125 AODVNetwork.host[3].wlan[0].mac rcvdPkFromLl:vector(packetBytes) ETV
attr interpolationmode none
attr source packetReceivedFromLower
attr title "packets received from lower layer, vector(packetBytes)"
vector 126 AODVNetwork.host[3].wlan[0].mac passedUpPk:vector(packetBytes) ETV
attr interpolationmode none
attr source packetSentToUpper
attr title "packets passed to higher layer, vector(packetBytes)"
vector 127 AODVNetwork.host[3].udp packetReceived:vector(packetBytes) ETV
attr interpolationmode none
attr source packetReceived
attr title "packets received, vector(packetBytes)"
vector 128 AODVNetwork.host[3].udp passedUpPk:vector(count) ETV
attr interpolationmode none
attr source packetSentToUpper
attr title "packets passed up, vector(count)"
vector 129 AODVNetwork.host[3].udp packetSent:vector(packetBytes) ETV
attr interpolationmode none
attr source packetSent
attr title "packets sent, vector(packetBytes)"
vector 130 AODVNetwork.host[3].wlan[0].mac rcvdPkFromHl:vector(packetBytes) ETV
attr interpolationmode none
attr source packetReceivedFromUpper
attr title "packets received from higher layer, vector(packetBytes)"
vector 131 AODVNetwork.host[3].wlan[0].mac.queue packetPushed:vector(packetBytes) ETV
attr interpolationmode none
attr title "packet pushed, vector(packetBytes)"
vector 132 AODVNetwork.host[3].wlan[0].mac.queue queueLength:vector ETV
attr interpolationmode sample-hold
attr source "count(packetPushed) - count(packetPopped) - count(packetRemoved) - count(packetDropped)"
attr title "queue length, vector"
vector 133 AODVNetwork.host[3].wlan[0].mac.queue packetPopped:vector(packetBytes) ETV
attr interpolationmode none
attr title "packet popped, vector(packetBytes)"
vector 134 AODVNetwork.host[3].wlan[0].mac.queue queueingTime:vector ETV
attr interpolationmode none
attr source queueingTime(packetPopped)
attr title "queueing times, vector"
attr unit s
vector 135 AODVNetwork.host[3].wlan[0].mac sentDownPk:vector(packetBytes) ETV
attr interpolationmode none
attr source packetSentToLower
attr title "packets sent to lower layer, vector(packetBytes)"
vector 136 AODVNetwork.host[17].wlan[0].mac rcvdPkFromLl:vector(packetBytes) ETV
attr interpolationmode none
attr source packetReceivedFromLower
attr title "packets received from lower layer, vector(packetBytes)"
vector 137 AODVNetwork.host[17].wlan[0].mac passedUpPk:vector(packetBytes) ETV
attr interpolationmode none
attr source packetSentToUpper
attr title "packets passed to higher layer, vector(packetBytes)"
vector 138 AODVNetwork.host[17].udp packetReceived:vector(packetBytes) ETV
attr interpolationmode none
attr source packetReceived
attr title "packets received, vector(packetBytes)"
vector 139 AODVNetwork.host[17].udp passedUpPk:vector(count) ETV
attr interpolationmode none
attr source packetSentToUpper
attr title "packets passed up, vector(count)"
vector 140 AODVNetwork.host[1].wlan[0].mac rcvdPkFromLl:vector(packetBytes) ETV
attr interpolationmode none
attr source packetReceivedFromLower
attr title "packets received from lower layer, vector(packetBytes)"
vector 141 AODVNetwork.host[1].wlan[0].mac passedUpPk:vector(packetBytes) ETV
attr interpolationmode none
attr source packetSentToUpper
attr title "packets passed to higher layer, vector(packetBytes)"
vector 142 AODVNetwork.host[1].udp packetReceived:vector(packetBytes) ETV
attr interpolationmode none
attr source packetReceived
attr title "packets received, vector(packetBytes)"
vector 143 AODVNetwork.host[1].udp passedUpPk:vector(count) ETV
attr interpolationmode none
attr source packetSentToUpper
attr title "packets passed up, vector(count)"
vector 144 AODVNetwork.host[1].udp packetSent:vector(packetBytes) ETV
attr interpolationmode none
attr source packetSent
attr title "packets sent, vector(packetBytes)"
vector 145 AODVNetwork.host[1].ipv4.arp arpRequestSent:vector(packetBytes) ETV
attr source arpRequestSent
attr title "ARP request sent, vector(packetBytes)"
vector 146 AODVNetwork.host[1].wlan[0].mac rcvdPkFromHl:vector(packetBytes) ETV
attr interpolationmode none
attr source packetReceivedFromUpper
attr title "packets received from higher layer, vector(packetBytes)"
vector 147 AODVNetwork.host[1].wlan[0].mac.queue packetPushed:vector(packetBytes) ETV
attr interpolationmode none
attr title "packet pushed, vector(packetBytes)"
vector 148 AODVNetwork.host[1].wlan[0].mac.queue queueLength:vector ETV
attr interpolationmode sample-hold
attr source "count(packetPushed) - count(packetPopped) - count(packetRemoved) - count(packetDropped)"
attr title "queue length, vector"
vector 149 AODVNetwork.host[1].wlan[0].mac.queue packetPopped:vector(packetBytes) ETV
attr interpolationmode none
attr title "packet popped, vector(packetBytes)"
vector 150 AODVNetwork.host[1].wlan[0].mac.queue queueingTime:vector ETV
attr interpolationmode none
attr source queueingTime(packetPopped)
attr title "queueing times, vector"
attr unit s
vector 151 AODVNetwork.host[1].wlan[0].mac sentDownPk:vector(packetBytes) ETV
attr interpolationmode none
attr source packetSentToLower
attr title "packets sent to lower layer, vector(packetBytes)"
vector 152 AODVNetwork.host[13].wlan[0].mac rcvdPkFromLl:vector(packetBytes) ETV
attr interpolationmode none
attr source packetReceivedFromLower
attr title "packets received from lower layer, vector(packetBytes)"
vector 153 AODVNetwork.host[13].wlan[0].mac passedUpPk:vector(packetBytes) ETV
attr interpolationmode none
attr source packetSentToUpper
attr title "packets passed to higher layer, vector(packetBytes)"
vector 154 AODVNetwork.host[13].udp packetReceived:vector(packetBytes) ETV
attr interpolationmode none
attr source packetReceived
attr title "packets received, vector(packetBytes)"
vector 155 AODVNetwork.host[13].udp passedUpPk:vector(count) ETV
attr interpolationmode none
attr source packetSentToUpper
attr title "packets passed up, vector(count)"
vector 156 AODVNetwork.host[11].udp packetSent:vector(packetBytes) ETV
attr interpolationmode none
attr source packetSent
attr title "packets sent, vector(packetBytes)"
vector 157 AODVNetwork.host[11].wlan[0].mac rcvdPkFromHl:vector(packetBytes) ETV
attr interpolationmode none
attr source packetReceivedFromUpper
attr title "packets received from higher layer, vector(packetBytes)"
vector 158 AODVNetwork.host[11].wlan[0].mac.queue packetPushed:vector(packetBytes) ETV
attr interpolationmode none
attr title "packet pushed, vector(packetBytes)"
vector 159 AODVNetwork.host[11].wlan[0].mac.queue queueLength:vector ETV
attr interpolationmode sample-hold
attr source "count(packetPushed) - count(packetPopped) - count(packetRemoved) - count(packetDropped)"
attr title "queue length, vector"
vector 160 AODVNetwork.host[11].wlan[0].mac.queue packetPopped:vector(packetBytes) ETV
attr interpolationmode none
attr title "packet popped, vector(packetBytes)"
vector 161 AODVNetwork.host[11].wlan[0].mac.queue queueingTime:vector ETV
attr interpolationmode none
attr source queueingTime(packetPopped)
attr title "queueing times, vector"
attr unit s
vector 162 AODVNetwork.host[11].wlan[0].mac sentDownPk:vector(packetBytes) ETV
attr interpolationmode none
attr source packetSentToLower
attr title "packets sent to lower layer, vector(packetBytes)"
vector 163 AODVNetwork.host[3].ipv4.arp arpReplySent:vector(packetBytes) ETV
attr source arpReplySent
attr title "ARP replies sent, vector(packetBytes)"
vector 164 AODVNetwork.host[9].wlan[0].mac rcvdPkFromLl:vector(packetBytes) ETV
attr interpolationmode none
attr source packetReceivedFromLower
attr title "packets received from lower layer, vector(packetBytes)"
vector 165 AODVNetwork.host[9].wlan[0].mac passedUpPk:vector(packetBytes) ETV
attr interpolationmode none
attr source packetSentToUpper
attr title "packets passed to higher layer, vector(packetBytes)"
vector 166 AODVNetwork.host[16].wlan[0].mac rcvdPkFromLl:vector(packetBytes) ETV
attr interpolationmode none
attr source packetReceivedFromLower
attr title "packets received from lower layer, vector(packetBytes)"
vector 167 AODVNetwork.host[16].wlan[0].mac passedUpPk:vector(packetBytes) ETV
attr interpolationmode none
attr source packetSentToUpper
attr title "packets passed to higher layer, vector(packetBytes)"
vector 168 AODVNetwork.host[14].udp packetSent:vector(packetBytes) ETV
attr interpolationmode none
attr source packetSent
attr title "packets sent, vector(packetBytes)"
vector 169 AODVNetwork.host[14].wlan[0].mac rcvdPkFromHl:vector(packetBytes) ETV
attr interpolationmode none
attr source packetReceivedFromUpper
attr title "packets received from higher layer, vector(packetBytes)"
vector 170 AODVNetwork.host[14].wlan[0].mac.queue packetPushed:vector(packetBytes) ETV
attr interpolationmode none
attr title "packet pushed, vector(packetBytes)"
vector 171 AODVNetwork.host[14].wlan[0].mac.queue queueLength:vector ETV
attr interpolationmode sample-hold
attr source "count(packetPushed) - count(packetPopped) - count(packetRemoved) - count(packetDropped)"
attr title "queue length, vector"
vector 172 AODVNetwork.host[14].wlan[0].mac.queue packetPopped:vector(packetBytes) ETV
attr interpolationmode none
attr title "packet popped, vector(packetBytes)"
vector 173 AODVNetwork.host[14].wlan[0].mac.queue queueingTime:vector ETV
attr interpolationmode none
attr source queueingTime(packetPopped)
attr title "queueing times, vector"
attr unit s
vector 174 AODVNetwork.host[14].wlan[0].mac sentDownPk:vector(packetBytes) ETV
attr interpolationmode none
attr source packetSentToLower
attr title "packets sent to lower layer, vector(packetBytes)"
vector 175 AODVNetwork.host[18].udp packetSent:vector(packetBytes) ETV
attr interpolationmode none
attr source packetSent
attr title "packets sent, vector(packetBytes)"
vector 176 AODVNetwork.host[18].wlan[0].mac rcvdPkFromHl:vector(packetBytes) ETV
attr interpolationmode none
attr source packetReceivedFromUpper
attr title "packets received from higher layer, vector(packetBytes)"
vector 177 AODVNetwork.host[18].wlan[0].mac.queue packetPushed:vector(packetBytes) ETV
attr interpolationmode none
attr title "packet pushed, vector(packetBytes)"
vector 178 AODVNetwork.host[18].wlan[0].mac.queue queueLength:vector ETV
attr interpolationmode sample-hold
attr source "count(packetPushed) - count(packetPopped) - count(packetRemoved) - count(packetDropped)"
attr title "queue length, vector"
vector 179 AODVNetwork.host[18].wlan[0].mac.queue packetPopped:vector(packetBytes) ETV
attr interpolationmode none
attr title "packet popped, vector(packetBytes)"
vector 180 AODVNetwork.host[18].wlan[0].mac.queue queueingTime:vector ETV
attr interpolationmode none
attr source queueingTime(packetPopped)
attr title "queueing times, vector"
attr unit s
vector 181 AODVNetwork.host[18].wlan[0].mac sentDownPk:vector(packetBytes) ETV
attr interpolationmode none
attr source packetSentToLower
attr title "packets sent to lower layer, vector(packetBytes)"
vector 182 AODVNetwork.host[12].wlan[0].mac packetDropNotAddressedToUs:vector(packetBytes) ETV
attr interpolationmode none
attr source packetDropReasonIsNotAddressedToUs(packetDropped)
attr title "packet drop: not addressed to us, vector(packetBytes)"
vector 183 AODVNetwork.host[17].wlan[0].mac packetDropNotAddressedToUs:vector(packetBytes) ETV
attr interpolationmode none
attr source packetDropReasonIsNotAddressedToUs(packetDropped)
attr title "packet drop: not addressed to us, vector(packetBytes)"
vector 184 AODVNetwork.host[11].wlan[0].mac packetDropNotAddressedToUs:vector(packetBytes) ETV
attr interpolationmode none
attr source packetDropReasonIsNotAddressedToUs(packetDropped)
attr title "packet drop: not addressed to us, vector(packetBytes)"
vector 185 AODVNetwork.host[13].wlan[0].mac packetDropNotAddressedToUs:vector(packetBytes) ETV
attr interpolationmode none
attr source packetDropReasonIsNotAddressedToUs(packetDropped)
attr title "packet drop: not addressed to us, vector(packetBytes)"
vector 186 AODVNetwork.host[2].wlan[0].mac rcvdPkFromLl:vector(packetBytes) ETV
attr interpolationmode none
attr source packetReceivedFromLower
attr title "packets received from lower layer, vector(packetBytes)"
vector 187 AODVNetwork.host[2].wlan[0].mac passedUpPk:vector(packetBytes) ETV
attr interpolationmode none
attr source packetSentToUpper
attr title "packets passed to higher layer, vector(packetBytes)"
vector 188 AODVNetwork.host[2].udp packetReceived:vector(packetBytes) ETV
attr interpolationmode none
attr source packetReceived
attr title "packets received, vector(packetBytes)"
vector 189 AODVNetwork.host[2].udp passedUpPk:vector(count) ETV
attr interpolationmode none
attr source packetSentToUpper
attr title "packets passed up, vector(count)"
vector 190 AODVNetwork.host[6].wlan[0].mac rcvdPkFromLl:vector(packetBytes) ETV
attr interpolationmode none
attr source packetReceivedFromLower
attr title "packets received from lower layer, vector(packetBytes)"
vector 191 AODVNetwork.host[6].wlan[0].mac passedUpPk:vector(packetBytes) ETV
attr interpolationmode none
attr source packetSentToUpper
attr title "packets passed to higher layer, vector(packetBytes)"
vector 192 AODVNetwork.host[6].udp packetReceived:vector(packetBytes) ETV
attr interpolationmode none
attr source packetReceived
attr title "packets received, vector(packetBytes)"
vector 193 AODVNetwork.host[6].udp passedUpPk:vector(count) ETV
attr interpolationmode none
attr source packetSentToUpper
attr title "packets passed up, vector(count)"
vector 194 AODVNetwork.host[16].udp packetReceived:vector(packetBytes) ETV
attr interpolationmode none
attr source packetReceived
attr title "packets received, vector(packetBytes)"
vector 195 AODVNetwork.host[16].udp passedUpPk:vector(count) ETV
attr interpolationmode none
attr source packetSentToUpper
attr title "packets passed up, vector(count)"
vector 196 AODVNetwork.host[9].udp packetReceived:vector(packetBytes) ETV
attr interpolationmode none
attr source packetReceived
attr title "packets received, vector(packetBytes)"
vector 197 AODVNetwork.host[9].udp passedUpPk:vector(count) ETV
attr interpolationmode none
attr source packetSentToUpper
attr title "packets passed up, vector(count)"
vector 198 AODVNetwork.host[12].udp packetSent:vector(packetBytes) ETV
attr interpolationmode none
attr source packetSent
attr title "packets sent, vector(packetBytes)"
vector 199 AODVNetwork.host[12].wlan[0].mac rcvdPkFromHl:vector(packetBytes) ETV
attr interpolationmode none
attr source packetReceivedFromUpper
attr title "packets received from higher layer, vector(packetBytes)"
vector 200 AODVNetwork.host[12].wlan[0].mac.queue packetPushed:vector(packetBytes) ETV
attr interpolationmode none
attr title "packet pushed, vector(packetBytes)"
vector 201 AODVNetwork.host[12].wlan[0].mac.queue queueLength:vector ETV
attr interpolationmode sample-hold
attr source "count(packetPushed) - count(packetPopped) - count(packetRemoved) - count(packetDropped)"
attr title "queue length, vector"
vector 202 AODVNetwork.host[12].wlan[0].mac.queue packetPopped:vector(packetBytes) ETV
attr interpolationmode none
attr title "packet popped, vector(packetBytes)"
vector 203 AODVNetwork.host[12].wlan[0].mac.queue queueingTime:vector ETV
attr interpolationmode none
attr source queueingTime(packetPopped)
attr title "queueing times, vector"
attr unit s
vector 204 AODVNetwork.host[12].wlan[0].mac sentDownPk:vector(packetBytes) ETV
attr interpolationmode none
attr source packetSentToLower
attr title "packets sent to lower layer, vector(packetBytes)"
vector 205 AODVNetwork.host[19].udp packetSent:vector(packetBytes) ETV
attr interpolationmode none
attr source packetSent
attr title "packets sent, vector(packetBytes)"
vector 206 AODVNetwork.host[19].wlan[0].mac rcvdPkFromHl:vector(packetBytes) ETV
attr interpolationmode none
attr source packetReceivedFromUpper
attr title "packets received from higher layer, vector(packetBytes)"
vector 207 AODVNetwork.host[19].wlan[0].mac.queue packetPushed:vector(packetBytes) ETV
attr interpolationmode none
attr title "packet pushed, vector(packetBytes)"
vector 208 AODVNetwork.host[19].wlan[0].mac.queue queueLength:vector ETV
attr interpolationmode sample-hold
attr source "count(packetPushed) - count(packetPopped) - count(packetRemoved) - count(packetDropped)"
attr title "queue length, vector"
vector 209 AODVNetwork.host[19].wlan[0].mac.queue packetPopped:vector(packetBytes) ETV
attr interpolationmode none
attr title "packet popped, vector(packetBytes)"
vector 210 AODVNetwork.host[19].wlan[0].mac.queue queueingTime:vector ETV
attr interpolationmode none
attr source queueingTime(packetPopped)
attr title "queueing times, vector"
attr unit s
vector 211 AODVNetwork.host[19].wlan[0].mac sentDownPk:vector(packetBytes) ETV
attr interpolationmode none
attr source packetSentToLower
attr title "packets sent to lower layer, vector(packetBytes)"
vector 212 AODVNetwork.host[16].udp packetSent:vector(packetBytes) ETV
attr interpolationmode none
attr source packetSent
attr title "packets sent, vector(packetBytes)"
vector 213 AODVNetwork.host[16].wlan[0].mac rcvdPkFromHl:vector(packetBytes) ETV
attr interpolationmode none
attr source packetReceivedFromUpper
attr title "packets received from higher layer, vector(packetBytes)"
vector 214 AODVNetwork.host[16].wlan[0].mac.queue packetPushed:vector(packetBytes) ETV
attr interpolationmode none
attr title "packet pushed, vector(packetBytes)"
vector 215 AODVNetwork.host[16].wlan[0].mac.queue queueLength:vector ETV
attr interpolationmode sample-hold
attr source "count(packetPushed) - count(packetPopped) - count(packetRemoved) - count(packetDropped)"
attr title "queue length, vector"
vector 216 AODVNetwork.host[16].wlan[0].mac.queue packetPopped:vector(packetBytes) ETV
attr interpolationmode none
attr title "packet popped, vector(packetBytes)"
vector 217 AODVNetwork.host[16].wlan[0].mac.queue queueingTime:vector ETV
attr interpolationmode none
attr source queueingTime(packetPopped)
attr title "queueing times, vector"
attr unit s
vector 218 AODVNetwork.host[16].wlan[0].mac sentDownPk:vector(packetBytes) ETV
attr interpolationmode none
attr source packetSentToLower
attr title "packets sent to lower layer, vector(packetBytes)"
vector 219 AODVNetwork.host[9].udp packetSent:vector(packetBytes) ETV
attr interpolationmode none
attr source packetSent
attr title "packets sent, vector(packetBytes)"
vector 220 AODVNetwork.host[9].wlan[0].mac rcvdPkFromHl:vector(packetBytes) ETV
attr interpolationmode none
attr source packetReceivedFromUpper
attr title "packets received from higher layer, vector(packetBytes)"
vector 221 AODVNetwork.host[9].wlan[0].mac.queue packetPushed:vector(packetBytes) ETV
attr interpolationmode none
attr title "packet pushed, vector(packetBytes)"
vector 222 AODVNetwork.host[9].wlan[0].mac.queue queueLength:vector ETV
attr interpolationmode sample-hold
attr source "count(packetPushed) - count(packetPopped) - count(packetRemoved) - count(packetDropped)"
attr title "queue length, vector"
vector 223 AODVNetwork.host[9].wlan[0].mac.queue packetPopped:vector(packetBytes) ETV
attr interpolationmode none
attr title "packet popped, vector(packetBytes)"
vector 224 AODVNetwork.host[9].wlan[0].mac.queue queueingTime:vector ETV
attr interpolationmode none
attr source queueingTime(packetPopped)
attr title "queueing times, vector"
attr unit s
vector 225 AODVNetwork.host[9].wlan[0].mac sentDownPk:vector(packetBytes) ETV
attr interpolationmode none
attr source packetSentToLower
attr title "packets sent to lower layer, vector(packetBytes)"
vector 226 AODVNetwork.host[13].udp packetSent:vector(packetBytes) ETV
attr interpolationmode none
attr source packetSent
attr title "packets sent, vector(packetBytes)"
vector 227 AODVNetwork.host[13].wlan[0].mac rcvdPkFromHl:vector(packetBytes) ETV
attr interpolationmode none
attr source packetReceivedFromUpper
attr title "packets received from higher layer, vector(packetBytes)"
vector 228 AODVNetwork.host[13].wlan[0].mac.queue packetPushed:vector(packetBytes) ETV
attr interpolationmode none
attr title "packet pushed, vector(packetBytes)"
vector 229 AODVNetwork.host[13].wlan[0].mac.queue queueLength:vector ETV
attr interpolationmode sample-hold
attr source "count(packetPushed) - count(packetPopped) - count(packetRemoved) - count(packetDropped)"
attr title "queue length, vector"
vector 230 AODVNetwork.host[13].wlan[0].mac.queue packetPopped:vector(packetBytes) ETV
attr interpolationmode none
attr title "packet popped, vector(packetBytes)"
vector 231 AODVNetwork.host[13].wlan[0].mac.queue queueingTime:vector ETV
attr interpolationmode none
attr source queueingTime(packetPopped)
attr title "queueing times, vector"
attr unit s
vector 232 AODVNetwork.host[13].wlan[0].mac sentDownPk:vector(packetBytes) ETV
attr interpolationmode none
attr source packetSentToLower
attr title "packets sent to lower layer, vector(packetBytes)"
vector 233 AODVNetwork.host[17].udp packetSent:vector(packetBytes) ETV
attr interpolationmode none
attr source packetSent
attr title "packets sent, vector(packetBytes)"
vector 234 AODVNetwork.host[17].wlan[0].mac rcvdPkFromHl:vector(packetBytes) ETV
attr interpolationmode none
attr source packetReceivedFromUpper
attr title "packets received from higher layer, vector(packetBytes)"
vector 235 AODVNetwork.host[17].wlan[0].mac.queue packetPushed:vector(packetBytes) ETV
attr interpolationmode none
attr title "packet pushed, vector(packetBytes)"
vector 236 AODVNetwork.host[17].wlan[0].mac.queue queueLength:vector ETV
attr interpolationmode sample-hold
attr source "count(packetPushed) - count(packetPopped) - count(packetRemoved) - count(packetDropped)"
attr title "queue length, vector"
vector 237 AODVNetwork.host[17].wlan[0].mac.queue packetPopped:vector(packetBytes) ETV
attr interpolationmode none
attr title "packet popped, vector(packetBytes)"
vector 238 AODVNetwork.host[17].wlan[0].mac.queue queueingTime:vector ETV
attr interpolationmode none
attr source queueingTime(packetPopped)
attr title "queueing times, vector"
attr unit s
vector 239 AODVNetwork.host[17].wlan[0].mac sentDownPk:vector(packetBytes) ETV
attr interpolationmode none
attr source packetSentToLower
attr title "packets sent to lower layer, vector(packetBytes)"
vector 240 AODVNetwork.host[6].udp packetSent:vector(packetBytes) ETV
attr interpolationmode none
attr source packetSent
attr title "packets sent, vector(packetBytes)"
vector 241 AODVNetwork.host[6].wlan[0].mac rcvdPkFromHl:vector(packetBytes) ETV
attr interpolationmode none
attr source packetReceivedFromUpper
attr title "packets received from higher layer, vector(packetBytes)"
vector 242 AODVNetwork.host[6].wlan[0].mac.queue packetPushed:vector(packetBytes) ETV
attr interpolationmode none
attr title "packet pushed, vector(packetBytes)"
vector 243 AODVNetwork.host[6].wlan[0].mac.queue queueLength:vector ETV
attr interpolationmode sample-hold
attr source "count(packetPushed) - count(packetPopped) - count(packetRemoved) - count(packetDropped)"
attr title "queue length, vector"
vector 244 AODVNetwork.host[6].wlan[0].mac.queue packetPopped:vector(packetBytes) ETV
attr interpolationmode none
attr title "packet popped, vector(packetBytes)"
vector 245 AODVNetwork.host[6].wlan[0].mac.queue queueingTime:vector ETV
attr interpolationmode none
attr source queueingTime(packetPopped)
attr title "queueing times, vector"
attr unit s
vector 246 AODVNetwork.host[6].wlan[0].mac sentDownPk:vector(packetBytes) ETV
attr interpolationmode none
attr source packetSentToLower
attr title "packets sent to lower layer, vector(packetBytes)"
vector 247 AODVNetwork.host[5].wlan[0].mac rcvdPkFromLl:vector(packetBytes) ETV
attr interpolationmode none
attr source packetReceivedFromLower
attr title "packets received from lower layer, vector(packetBytes)"
vector 248 AODVNetwork.host[5].wlan[0].mac passedUpPk:vector(packetBytes) ETV
attr interpolationmode none
attr source packetSentToUpper
attr title "packets passed to higher layer, vector(packetBytes)"
vector 249 AODVNetwork.host[5].udp packetReceived:vector(packetBytes) ETV
attr interpolationmode none
attr source packetReceived
attr title "packets received, vector(packetBytes)"
vector 250 AODVNetwork.host[5].udp passedUpPk:vector(count) ETV
attr interpolationmode none
attr source packetSentToUpper
attr title "packets passed up, vector(count)"
vector 251 AODVNetwork.host[7].wlan[0].mac rcvdPkFromLl:vector(packetBytes) ETV
attr interpolationmode none
attr source packetReceivedFromLower
attr title "packets received from lower layer, vector(packetBytes)"
vector 252 AODVNetwork.host[7].wlan[0].mac passedUpPk:vector(packetBytes) ETV
attr interpolationmode none
attr source packetSentToUpper
attr title "packets passed to higher layer, vector(packetBytes)"
vector 253 AODVNetwork.host[7].udp packetReceived:vector(packetBytes) ETV
attr interpolationmode none
attr source packetReceived
attr title "packets received, vector(packetBytes)"
vector 254 AODVNetwork.host[7].udp passedUpPk:vector(count) ETV
attr interpolationmode none
attr source packetSentToUpper
attr title "packets passed up, vector(count)"
vector 255 AODVNetwork.host[8].wlan[0].mac rcvdPkFromLl:vector(packetBytes) ETV
attr interpolationmode none
attr source packetReceivedFromLower
attr title "packets received from lower layer, vector(packetBytes)"
vector 256 AODVNetwork.host[8].wlan[0].mac passedUpPk:vector(packetBytes) ETV
attr interpolationmode none
attr source packetSentToUpper
attr title "packets passed to higher layer, vector(packetBytes)"
vector 257 AODVNetwork.host[8].udp packetReceived:vector(packetBytes) ETV
attr interpolationmode none
attr source packetReceived
attr title "packets received, vector(packetBytes)"
vector 258 AODVNetwork.host[8].udp passedUpPk:vector(count) ETV
attr interpolationmode none
attr source packetSentToUpper
attr title "packets passed up, vector(count)"
vector 259 AODVNetwork.host[2].udp packetSent:vector(packetBytes) ETV
attr interpolationmode none
attr source packetSent
attr title "packets sent, vector(packetBytes)"
vector 260 AODVNetwork.host[2].wlan[0].mac rcvdPkFromHl:vector(packetBytes) ETV
attr interpolationmode none
attr source packetReceivedFromUpper
attr title "packets received from higher layer, vector(packetBytes)"
vector 261 AODVNetwork.host[2].wlan[0].mac.queue packetPushed:vector(packetBytes) ETV
attr interpolationmode none
attr title "packet pushed, vector(packetBytes)"
vector 262 AODVNetwork.host[2].wlan[0].mac.queue queueLength:vector ETV
attr interpolationmode sample-hold
attr source "count(packetPushed) - count(packetPopped) - count(packetRemoved) - count(packetDropped)"
attr title "queue length, vector"
vector 263 AODVNetwork.host[2].wlan[0].mac.queue packetPopped:vector(packetBytes) ETV
attr interpolationmode none
attr title "packet popped, vector(packetBytes)"
vector 264 AODVNetwork.host[2].wlan[0].mac.queue queueingTime:vector ETV
attr interpolationmode none
attr source queueingTime(packetPopped)
attr title "queueing times, vector"
attr unit s
vector 265 AODVNetwork.host[2].wlan[0].mac sentDownPk:vector(packetBytes) ETV
attr interpolationmode none
attr source packetSentToLower
attr title "packets sent to lower layer, vector(packetBytes)"
vector 266 AODVNetwork.host[8].udp packetSent:vector(packetBytes) ETV
attr interpolationmode none
attr source packetSent
attr title "packets sent, vector(packetBytes)"
vector 267 AODVNetwork.host[8].wlan[0].mac rcvdPkFromHl:vector(packetBytes) ETV
attr interpolationmode none
attr source packetReceivedFromUpper
attr title "packets received from higher layer, vector(packetBytes)"
vector 268 AODVNetwork.host[8].wlan[0].mac.queue packetPushed:vector(packetBytes) ETV
attr interpolationmode none
attr title "packet pushed, vector(packetBytes)"
vector 269 AODVNetwork.host[8].wlan[0].mac.queue queueLength:vector ETV
attr interpolationmode sample-hold
attr source "count(packetPushed) - count(packetPopped) - count(packetRemoved) - count(packetDropped)"
attr title "queue length, vector"
vector 270 AODVNetwork.host[8].wlan[0].mac.queue packetPopped:vector(packetBytes) ETV
attr interpolationmode none
attr title "packet popped, vector(packetBytes)"
vector 271 AODVNetwork.host[8].wlan[0].mac.queue queueingTime:vector ETV
attr interpolationmode none
attr source queueingTime(packetPopped)
attr title "queueing times, vector"
attr unit s
vector 272 AODVNetwork.host[8].wlan[0].mac sentDownPk:vector(packetBytes) ETV
attr interpolationmode none
attr source packetSentToLower
attr title "packets sent to lower layer, vector(packetBytes)"
vector 273 AODVNetwork.host[5].udp packetSent:vector(packetBytes) ETV
attr interpolationmode none
attr source packetSent
attr title "packets sent, vector(packetBytes)"
vector 274 AODVNetwork.host[5].wlan[0].mac rcvdPkFromHl:vector(packetBytes) ETV
attr interpolationmode none
attr source packetReceivedFromUpper
attr title "packets received from higher layer, vector(packetBytes)"
vector 275 AODVNetwork.host[5].wlan[0].mac.queue packetPushed:vector(packetBytes) ETV
attr interpolationmode none
attr title "packet pushed, vector(packetBytes)"
vector 276 AODVNetwork.host[5].wlan[0].mac.queue queueLength:vector ETV
attr interpolationmode sample-hold
attr source "count(packetPushed) - count(packetPopped) - count(packetRemoved) - count(packetDropped)"
attr title "queue length, vector"
vector 277 AODVNetwork.host[5].wlan[0].mac.queue packetPopped:vector(packetBytes) ETV
attr interpolationmode none
attr title "packet popped, vector(packetBytes)"
vector 278 AODVNetwork.host[5].wlan[0].mac.queue queueingTime:vector ETV
attr interpolationmode none
attr source queueingTime(packetPopped)
attr title "queueing times, vector"
attr unit s
vector 279 AODVNetwork.host[5].wlan[0].mac sentDownPk:vector(packetBytes) ETV
attr interpolationmode none
attr source packetSentToLower
attr title "packets sent to lower layer, vector(packetBytes)"
vector 280 AODVNetwork.host[7].udp packetSent:vector(packetBytes) ETV
attr interpolationmode none
attr source packetSent
attr title "packets sent, vector(packetBytes)"
vector 281 AODVNetwork.host[7].wlan[0].mac rcvdPkFromHl:vector(packetBytes) ETV
attr interpolationmode none
attr source packetReceivedFromUpper
attr title "packets received from higher layer, vector(packetBytes)"
vector 282 AODVNetwork.host[7].wlan[0].mac.queue packetPushed:vector(packetBytes) ETV
attr interpolationmode none
attr title "packet pushed, vector(packetBytes)"
vector 283 AODVNetwork.host[7].wlan[0].mac.queue queueLength:vector ETV
attr interpolationmode sample-hold
attr source "count(packetPushed) - count(packetPopped) - count(packetRemoved) - count(packetDropped)"
attr title "queue length, vector"
vector 284 AODVNetwork.host[7].wlan[0].mac.queue packetPopped:vector(packetBytes) ETV
attr interpolationmode none
attr title "packet popped, vector(packetBytes)"
vector 285 AODVNetwork.host[7].wlan[0].mac.queue queueingTime:vector ETV
attr interpolationmode none
attr source queueingTime(packetPopped)
attr title "queueing times, vector"
attr unit s
vector 286 AODVNetwork.host[7].wlan[0].mac sentDownPk:vector(packetBytes) ETV
attr interpolationmode none
attr source packetSentToLower
attr title "packets sent to lower layer, vector(packetBytes)"
vector 287 AODVNetwork.host[14].wlan[0].mac packetDropNotAddressedToUs:vector(packetBytes) ETV
attr interpolationmode none
attr source packetDropReasonIsNotAddressedToUs(packetDropped)
attr title "packet drop: not addressed to us, vector(packetBytes)"
vector 288 AODVNetwork.host[10].wlan[0].mac packetDropNotAddressedToUs:vector(packetBytes) ETV
attr interpolationmode none
attr source packetDropReasonIsNotAddressedToUs(packetDropped)
attr title "packet drop: not addressed to us, vector(packetBytes)"
vector 289 AODVNetwork.host[9].wlan[0].mac packetDropNotAddressedToUs:vector(packetBytes) ETV
attr interpolationmode none
attr source packetDropReasonIsNotAddressedToUs(packetDropped)
attr title "packet drop: not addressed to us, vector(packetBytes)"
vector 290 AODVNetwork.host[16].wlan[0].mac packetDropNotAddressedToUs:vector(packetBytes) ETV
attr interpolationmode none
attr source packetDropReasonIsNotAddressedToUs(packetDropped)
attr title "packet drop: not addressed to us, vector(packetBytes)"
vector 291 AODVNetwork.host[3].ipv4.arp arpRequestSent:vector(packetBytes) ETV
attr source arpRequestSent
attr title "ARP request sent, vector(packetBytes)"
vector 292 AODVNetwork.host[10].ipv4.arp arpReplySent:vector(packetBytes) ETV
attr source arpReplySent
attr title "ARP replies sent, vector(packetBytes)"
vector 293 AODVNetwork.host[15].wlan[0].mac packetDropNotAddressedToUs:vector(packetBytes) ETV
attr interpolationmode none
attr source packetDropReasonIsNotAddressedToUs(packetDropped)
attr title "packet drop: not addressed to us, vector(packetBytes)"
vector 294 AODVNetwork.host[19].wlan[0].mac packetDropNotAddressedToUs:vector(packetBytes) ETV
attr interpolationmode none
attr source packetDropReasonIsNotAddressedToUs(packetDropped)
attr title "packet drop: not addressed to us, vector(packetBytes)"
vector 295 AODVNetwork.host[18].wlan[0].mac packetDropNotAddressedToUs:vector(packetBytes) ETV
attr interpolationmode none
attr source packetDropReasonIsNotAddressedToUs(packetDropped)
attr title "packet drop: not addressed to us, vector(packetBytes)"
vector 296 AODVNetwork.host[1].wlan[0].mac packetDropNotAddressedToUs:vector(packetBytes) ETV
attr interpolationmode none
attr source packetDropReasonIsNotAddressedToUs(packetDropped)
attr title "packet drop: not addressed to us, vector(packetBytes)"
vector 297 AODVNetwork.host[10].ipv4.arp arpRequestSent:vector(packetBytes) ETV
attr source arpRequestSent
attr title "ARP request sent, vector(packetBytes)"
vector 298 AODVNetwork.host[15].ipv4.arp arpReplySent:vector(packetBytes) ETV
attr source arpReplySent
attr title "ARP replies sent, vector(packetBytes)"
vector 299 AODVNetwork.host[4].wlan[0].mac packetDropNotAddressedToUs:vector(packetBytes) ETV
attr interpolationmode none
attr source packetDropReasonIsNotAddressedToUs(packetDropped)
attr title "packet drop: not addressed to us, vector(packetBytes)"
vector 300 AODVNetwork.host[0].wlan[0].mac packetDropNotAddressedToUs:vector(packetBytes) ETV
attr interpolationmode none
attr source packetDropReasonIsNotAddressedToUs(packetDropped)
attr title "packet drop: not addressed to us, vector(packetBytes)"
vector 301 AODVNetwork.host[3].wlan[0].mac packetDropNotAddressedToUs:vector(packetBytes) ETV
attr interpolationmode none
attr source packetDropReasonIsNotAddressedToUs(packetDropped)
attr title "packet drop: not addressed to us, vector(packetBytes)"
vector 302 AODVNetwork.host[15].ipv4.arp arpRequestSent:vector(packetBytes) ETV
attr source arpRequestSent
attr title "ARP request sent, vector(packetBytes)"
vector 303 AODVNetwork.host[0].ipv4.arp arpReplySent:vector(packetBytes) ETV
attr source arpReplySent
attr title "ARP replies sent, vector(packetBytes)"
vector 304 AODVNetwork.host[12].ipv4.arp arpReplySent:vector(packetBytes) ETV
attr source arpReplySent
attr title "ARP replies sent, vector(packetBytes)"
vector 305 AODVNetwork.host[12].ipv4.arp arpRequestSent:vector(packetBytes) ETV
attr source arpRequestSent
attr title "ARP request sent, vector(packetBytes)"
vector 306 AODVNetwork.host[0].app[0] pingRxSeq:vector ETV
attr interpolationmode none
attr title "ping rx seq, vector"
vector 307 AODVNetwork.host[0].app[0] rtt:vector ETV
attr interpolationmode none
attr title "ping round-trip time, vector"
attr unit s
vector 308 AODVNetwork.host[11].ipv4.arp arpReplySent:vector(packetBytes) ETV
attr source arpReplySent
attr title "ARP replies sent, vector(packetBytes)"
vector 309 AODVNetwork.host[11].ipv4.arp arpRequestSent:vector(packetBytes) ETV
attr source arpRequestSent
attr title "ARP request sent, vector(packetBytes)"
vector 310 AODVNetwork.host[1].ipv4.arp arpReplySent:vector(packetBytes) ETV
attr source arpReplySent
attr title "ARP replies sent, vector(packetBytes)"
vector 311 AODVNetwork.host[7].wlan[0].mac packetDropNotAddressedToUs:vector(packetBytes) ETV
attr interpolationmode none
attr source packetDropReasonIsNotAddressedToUs(packetDropped)
attr title "packet drop: not addressed to us, vector(packetBytes)"
vector 312 AODVNetwork.host[6].wlan[0].mac packetDropNotAddressedToUs:vector(packetBytes) ETV
attr interpolationmode none
attr source packetDropReasonIsNotAddressedToUs(packetDropped)
attr title "packet drop: not addressed to us, vector(packetBytes)"
vector 313 AODVNetwork.host[2].wlan[0].mac packetDropNotAddressedToUs:vector(packetBytes) ETV
attr interpolationmode none
attr source packetDropReasonIsNotAddressedToUs(packetDropped)
attr title "packet drop: not addressed to us, vector(packetBytes)"
vector 314 AODVNetwork.host[5].wlan[0].mac packetDropNotAddressedToUs:vector(packetBytes) ETV
attr interpolationmode none
attr source packetDropReasonIsNotAddressedToUs(packetDropped)
attr title "packet drop: not addressed to us, vector(packetBytes)"
vector 315 AODVNetwork.host[19].ipv4.arp arpReplySent:vector(packetBytes) ETV
attr source arpReplySent
attr title "ARP replies sent, vector(packetBytes)"
vector 316 AODVNetwork.host[19].ipv4.arp arpRequestSent:vector(packetBytes) ETV
attr source arpRequestSent
attr title "ARP request sent, vector(packetBytes)"
vector 317 AODVNetwork.host[0].app[0] numLost:vector ETV
attr interpolationmode none
attr title "pings lost, vector"
vector 318 AODVNetwork.host[0].ipv4.arp arpRequestSent:vector(packetBytes) ETV
attr source arpRequestSent
attr title "ARP request sent, vector(packetBytes)"
vector 319 AODVNetwork.host[17].ipv4.arp arpReplySent:vector(packetBytes) ETV
attr source arpReplySent
attr title "ARP replies sent, vector(packetBytes)"
vector 320 AODVNetwork.host[17].ipv4.arp arpRequestSent:vector(packetBytes) ETV
attr source arpRequestSent
attr title "ARP request sent, vector(packetBytes)"
vector 321 AODVNetwork.host[7].ipv4.arp arpReplySent:vector(packetBytes) ETV
attr source arpReplySent
attr title "ARP replies sent, vector(packetBytes)"
vector 322 AODVNetwork.host[7].ipv4.arp arpRequestSent:vector(packetBytes) ETV
attr source arpRequestSent
attr title "ARP request sent, vector(packetBytes)"
vector 323 AODVNetwork.host[14].ipv4.arp arpReplySent:vector(packetBytes) ETV
attr source arpReplySent
attr title "ARP replies sent, vector(packetBytes)"
vector 324 AODVNetwork.host[14].ipv4.arp arpRequestSent:vector(packetBytes) ETV
attr source arpRequestSent
attr title "ARP request sent, vector(packetBytes)"
vector 325 AODVNetwork.host[9].ipv4.arp arpRequestSent:vector(packetBytes) ETV
attr source arpRequestSent
attr title "ARP request sent, vector(packetBytes)"
vector 326 AODVNetwork.host[2].ipv4.arp arpRequestSent:vector(packetBytes) ETV
attr source arpRequestSent
attr title "ARP request sent, vector(packetBytes)"
vector 327 AODVNetwork.host[13].ipv4.arp arpRequestSent:vector(packetBytes) ETV
attr source arpRequestSent
attr title "ARP request sent, vector(packetBytes)"
vector 328 AODVNetwork.host[18].ipv4.arp arpRequestSent:vector(packetBytes) ETV
attr source arpRequestSent
attr title "ARP request sent, vector(packetBytes)"
vector 329 AODVNetwork.host[13].ipv4.ip packetDropAddressResolutionFailed:vector(packetBytes) ETV
attr interpolationmode none
attr source packetDropReasonIsAddressResolutionFailed(packetDropped)
attr title "packet drop: address resolution failed, vector(packetBytes)"
vector 330 AODVNetwork.host[18].ipv4.ip packetDropAddressResolutionFailed:vector(packetBytes) ETV
attr interpolationmode none
attr source packetDropReasonIsAddressResolutionFailed(packetDropped)
attr title "packet drop: address resolution failed, vector(packetBytes)"
vector 331 AODVNetwork.host[8].wlan[0].mac packetDropNotAddressedToUs:vector(packetBytes) ETV
attr interpolationmode none
attr source packetDropReasonIsNotAddressedToUs(packetDropped)
attr title "packet drop: not addressed to us, vector(packetBytes)"
vector 332 AODVNetwork.host[2].ipv4.arp arpReplySent:vector(packetBytes) ETV
attr source arpReplySent
attr title "ARP replies sent, vector(packetBytes)"
vector 333 AODVNetwork.host[6].ipv4.arp arpReplySent:vector(packetBytes) ETV
attr source arpReplySent
attr title "ARP replies sent, vector(packetBytes)"
vector 334 AODVNetwork.host[6].ipv4.arp arpRequestSent:vector(packetBytes) ETV
attr source arpRequestSent
attr title "ARP request sent, vector(packetBytes)"
vector 335 AODVNetwork.host[5].ipv4.arp arpReplySent:vector(packetBytes) ETV
attr source arpReplySent
attr title "ARP replies sent, vector(packetBytes)"
vector 336 AODVNetwork.host[5].ipv4.arp arpRequestSent:vector(packetBytes) ETV
attr source arpRequestSent
attr title "ARP request sent, vector(packetBytes)"
0	0	0	0
0	0	0	0
0	0	0	4
1	0	0	0
1	0	0	0
1	0	0	4
2	0	0	0
2	0	0	0
2	0	0	4
3	0	0	0
3	0	0	0
3	0	0	4
4	0	0	0
4	0	0	0
4	0	0	4
5	0	0	0
5	0	0	0
5	0	0	4
6	0	0	0
6	0	0	0
6	0	0	4
7	0	0	0
7	0	0	0
7	0	0	4
8	0	0	0
8	0	0	0
8	0	0	4
9	0	0	0
9	0	0	0
9	0	0	4
10	0	0	0
10	0	0	0
10	0	0	4
11	0	0	0
11	0	0	0
11	0	0	4
12	0	0	0
12	0	0	0
12	0	0	4
13	0	0	0
13	0	0	0
13	0	0	4
14	0	0	0
14	0	0	0
14	0	0	4
15	0	0	0
15	0	0	0
15	0	0	4
16	0	0	0
16	0	0	0
16	0	0	4
17	0	0	0
17	0	0	0
17	0	0	4
18	0	0	0
18	0	0	0
18	0	0	4
19	0	0	0
19	0	0	0
19	0	0	4
20	0	0	1
20	737	3.202142335711	3
20	757	3.202490335711	1
20	791	3.202788814286	3
20	819	3.203136814286	1
20	961	3.521341491701	3
20	989	3.521689491701	1
20	1015	3.522905706642	3
20	1035	3.523253706642	1
20	1785	4.000344585443	3
20	1805	4.000692585443	1
20	1838	4.00488043248	3
20	1862	4.00522843248	1
20	3412	4.536043427208	3
20	3434	4.536295427208	1
20	3517	4.541414450846	3
20	3540	4.541666450846	1
20	3595	4.541919689352	3
20	3630	4.542251689352	1
20	3690	4.542728927851	3
20	3745	4.543204927851	1
20	3768	4.543205551794	3
20	3833	4.543681551794	1
20	4579	5.195731240615	3
20	4615	5.196207240615	1
20	5212	6.012450326699	3
20	5303	6.012926326699	1
20	5343	6.012926995977	3
20	5373	6.013402995977	1
20	5545	6.113403665254	3
20	5674	6.113879665254	1
20	5750	6.195731229923	3
20	5786	6.196207229923	1
20	7358	6.530135424425	3
20	7406	6.530483424425	1
20	7487	6.531748303277	3
20	7508	6.532080303277	1
20	8028	6.542742190025	3
20	8050	6.543218190025	1
20	8270	7.195731219282	3
20	8306	7.196207219282	1
20	8583	7.198590906393	3
20	8605	7.199066906393	1
20	8869	8.195731208693	3
20	8905	8.196207208693	1
20	9182	8.198590895879	3
20	9204	8.199066895879	1
20	9468	9.195731198157	3
20	9504	9.196207198157	1
20	9781	9.198590885593	3
20	9803	9.199066885593	1
20	10168	10.195731187628	3
20	10204	10.196207187628	1
20	10480	10.198590873119	3
20	10502	10.199066873119	1
20	10767	11.195731176932	3
20	10803	11.196207176932	1
20	11079	11.198590856285	3
20	11102	11.199066856285	1
20	11377	12.195731166291	3
20	11413	12.196207166291	1
20	11693	12.198590839938	3
20	11716	12.199066839938	1
20	11981	13.195731155705	3
20	12017	13.196207155705	1
20	12293	13.198590824085	3
20	12316	13.199066824085	1
20	12581	14.195731145178	3
20	12616	14.196207145178	1
20	12892	14.198590808728	3
20	12916	14.199066808728	1
20	13189	15.195731135717	3
20	13225	15.196207135717	1
20	13507	15.198590793786	3
20	13531	15.199066793786	1
20	13796	16.195731128283	3
20	13832	16.196207128283	1
20	14112	16.198590778977	3
20	14136	16.199066778977	1
20	14400	17.195731120959	3
20	14436	17.196207120959	1
20	14714	17.198590764754	3
20	14738	17.199066764754	1
20	15003	18.195731113747	3
20	15039	18.196207113747	1
20	15321	18.198590751124	3
20	15345	18.199066751124	1
20	15609	19.195731106649	3
20	15645	19.196207106649	1
20	15923	19.198590738096	3
20	15947	19.199066738096	1
20	16222	20.19573109948	3
20	16258	20.19620709948	1
20	16535	20.198590726068	3
20	16559	20.199066726068	1
20	16827	21.195731091803	3
20	16863	21.196207091803	1
20	17145	21.198590715959	3
20	17169	21.199066715959	1
20	17448	22.195731084239	3
20	17484	22.196207084239	1
20	17764	22.198590706321	3
20	17788	22.199066706321	1
20	18053	23.195731076793	3
20	18089	23.196207076793	1
20	18369	23.198590697157	3
20	18393	23.199066697157	1
20	18659	24.195731069464	3
20	18695	24.196207069464	1
20	18979	24.198590688471	3
20	19003	24.199066688471	1
20	19368	25.195731062115	3
20	19404	25.196207062115	1
20	19684	25.19859068111	3
20	19708	25.19906668111	1
20	19974	26.195731053745	3
20	20010	26.196207053745	1
20	20290	26.198590675874	3
20	20314	26.199066675874	1
20	20588	27.195731045479	3
20	20624	27.196207045479	1
20	20906	27.198590670956	2
20	20907	27.198590670956	3
20	20932	27.199066670956	1
20	21198	28.195731037325	3
20	21234	28.196207037325	1
20	21515	28.198590666363	3
20	21540	28.199066666363	1
20	21805	29.195731029281	3
20	21841	29.196207029281	1
20	22118	29.198590662089	3
20	22143	29.199066662089	1
20	22415	30.195731022865	3
20	22452	30.196207022865	1
20	22732	30.198590659833	3
20	22758	30.199066659833	1
20	23026	31.195731024383	3
20	23062	31.196207024383	1
20	23337	31.19859066011	3
20	23364	31.19906666011	1
20	23630	32.195731026072	3
20	23666	32.196207026072	1
20	23941	32.19859066063	3
20	23968	32.19906666063	1
20	24234	33.195731027933	3
20	24270	33.196207027933	1
20	24549	33.198590661366	3
20	24576	33.199066661366	1
20	24843	34.195731029965	3
20	24879	34.196207029965	1
20	25156	34.198590662316	3
20	25183	34.199066662316	1
20	25456	35.195731032442	3
20	25492	35.196207032442	1
20	25771	35.198590660233	3
20	25797	35.199066660233	1
20	26067	36.195731036454	3
20	26103	36.196207036454	1
20	26383	36.19859065679	3
20	26409	36.19906665679	1
20	26676	37.195731040622	3
20	26712	37.196207040622	1
20	26990	37.198590654119	3
20	27016	37.199066654119	1
20	27284	38.195731044944	3
20	27320	38.196207044944	1
20	27600	38.198590652061	3
20	27626	38.199066652061	1
20	27894	39.195731049422	3
20	27931	39.196207049422	1
20	28213	39.198590650625	3
20	28239	39.199066650625	1
20	28512	40.195731054999	3
20	28549	40.196207054999	1
20	28830	40.198590649303	3
20	28856	40.199066649303	1
20	29124	41.195731063005	3
20	29161	41.196207063005	1
20	29443	41.19859064684	3
20	29469	41.19906664684	1
20	29737	42.195731071117	3
20	29773	42.196207071117	1
20	30055	42.198590644549	3
20	30081	42.199066644549	1
20	30349	43.195731079333	3
20	30389	43.196207079333	1
20	30664	43.198590642739	3
20	30692	43.199066642739	1
20	30959	44.195731087651	3
20	30999	44.196207087651	1
20	31278	44.198590641412	3
20	31306	44.199066641412	1
20	31578	45.19573109779	3
20	31620	45.19620709779	1
20	31898	45.198590640157	3
20	31927	45.199066640157	1
20	32196	46.19573111034	3
20	32237	46.19620711034	1
20	32513	46.19859063825	3
20	32542	46.19906663825	1
20	32808	47.19573112291	3
20	32848	47.19620712291	1
20	33126	47.198590636613	3
20	33155	47.199066636613	1
20	33422	48.195731135496	3
20	33463	48.196207135496	1
20	33737	48.198590635265	3
20	33767	48.199066635265	1
20	34034	49.195731148098	3
20	34073	49.196207148098	1
20	34346	49.198590634207	3
20	34376	49.199066634207	1
20	34650	50.195731159774	3
20	34689	50.196207159774	1
20	34965	50.1985906305	3
20	34995	50.1990666305	1
20	35264	51.195731170648	3
20	35304	51.196207170648	1
20	35578	51.19859062456	3
20	35608	51.19906662456	1
20	35876	52.195731181575	3
20	35915	52.196207181575	1
20	36187	52.198590619095	3
20	36218	52.199066619095	1
20	36485	53.195731192553	3
20	36524	53.196207192553	1
20	36800	53.198590614113	3
20	36831	53.199066614113	1
20	37099	54.19573120358	3
20	37139	54.19620720358	1
20	37414	54.198590609615	3
20	37445	54.199066609615	1
20	37716	55.1957312147	3
20	37755	55.1962072147	1
20	38028	55.19859060564	3
20	38059	55.19906660564	1
20	38331	56.195731225934	3
20	38370	56.196207225934	1
20	38645	56.198590602113	3
20	38676	56.199066602113	1
20	38944	57.19573123721	3
20	38984	57.19620723721	1
20	39258	57.198590598856	3
20	39289	57.199066598856	1
20	39558	58.195731248527	3
20	39597	58.196207248527	1
20	39870	58.198590595866	3
20	39901	58.199066595866	1
20	40169	59.195731259882	3
20	40208	59.196207259882	1
20	40483	59.198590593144	3
20	40514	59.199066593144	1
20	40787	60.195731270604	3
20	40827	60.196207270604	1
20	41101	60.198590590658	3
20	41132	60.199066590658	1
20	41404	61.195731273682	3
20	41444	61.196207273682	1
20	41716	61.19859058643	3
20	41748	61.19906658643	1
20	42016	62.195731276896	3
20	42056	62.196207276896	1
20	42330	62.198590582444	3
20	42362	62.199066582444	1
20	42629	63.195731280244	3
20	42670	63.196207280244	1
20	42939	63.198590578749	3
20	42971	63.199066578749	1
20	43239	64.195731283724	3
20	43279	64.196207283724	1
20	43547	64.198590575352	3
20	43579	64.199066575352	1
20	43854	65.195731287633	3
20	43894	65.196207287633	1
20	44165	65.198590572265	3
20	44197	65.199066572265	1
20	44467	66.195731295799	3
20	44508	66.196207295799	1
20	44775	66.198590570517	3
20	44807	66.199066570517	1
20	45075	67.195731304053	3
20	45116	67.196207304053	1
20	45380	67.198590569221	3
20	45412	67.199066569221	1
20	45681	68.195731312393	3
20	45722	68.196207312393	1
20	45989	68.198590568382	3
20	46021	68.199066568382	1
20	46289	69.195731320817	3
20	46331	69.196207320817	1
20	46594	69.198590568019	3
20	46627	69.199066568019	1
20	46902	70.195731329325	3
20	46943	70.196207329325	1
20	47206	70.198590568119	3
20	47239	70.199066568119	1
20	47510	71.195731328743	3
20	47551	71.196207328743	1
20	47817	71.198590571016	3
20	47850	71.199066571016	1
20	48119	72.195731328093	3
20	48161	72.196207328093	1
20	48424	72.198590575426	3
20	48457	72.199066575426	1
20	48725	73.195731327575	3
20	48766	73.196207327575	1
20	49030	73.198590581386	3
20	49064	73.199066581386	1
20	49333	74.195731327191	3
20	49374	74.196207327191	1
20	49637	74.198590588959	3
20	49671	74.199066588959	1
20	49944	75.195731326806	3
20	49986	75.196207326806	1
20	50250	75.198590598249	3
20	50284	75.199066598249	1
20	50555	76.195731322874	3
20	50596	76.196207322874	1
20	50860	76.19859060834	3
20	50894	76.19906660834	1
20	51162	77.195731319066	3
20	51203	77.196207319066	1
20	51468	77.198590619624	3
20	51502	77.199066619624	1
20	51771	78.195731315383	3
20	51813	78.196207315383	1
20	51963	78.298852465388	3
20	52006	78.299152465388	1
20	52343	79.196780369197	3
20	52387	79.197128369197	1
20	52413	79.197362154471	3
20	52445	79.197710154471	1
20	52483	79.199527495378	3
20	52503	79.199875495378	1
20	52667	79.517972390049	3
20	52699	79.518320390049	1
20	52835	79.520284848362	3
20	52935	79.520632848362	2
20	52953	79.520659460484	1
20	53784	79.534957649189	3
20	53809	79.535209649189	1
20	53892	79.536039686729	3
20	53915	79.536371686729	1
20	53976	79.536848988154	3
20	54012	79.537324988154	1
20	54285	79.539708965817	3
20	54310	79.540184965817	1
20	54531	80.195731308398	3
20	54567	80.196207308398	1
20	54841	80.19859126456	3
20	54866	80.19906726456	1
20	55139	81.195731307727	3
20	55175	81.196207307727	1
20	55447	81.198591229765	3
20	55472	81.199067229765	1
20	55741	82.195731308175	3
20	55777	82.196207308175	1
20	56052	82.198591195975	3
20	56077	82.199067195975	1
20	56415	83.195731308761	3
20	56451	83.196207308761	1
20	56723	83.198591163059	3
20	56748	83.199067163059	1
20	57017	84.195731309485	3
20	57053	84.196207309485	1
20	57325	84.198591131036	3
20	57350	84.199067131036	1
20	57639	85.195731310347	3
20	57675	85.196207310347	1
20	57951	85.198591100608	3
20	57976	85.199067100608	1
20	58249	86.195731311532	3
20	58285	86.196207311532	1
20	58557	86.198591074781	3
20	58583	86.199067074781	1
20	58852	87.195731312898	3
20	58888	87.196207312898	1
20	59160	87.198591049954	3
20	59186	87.199067049954	1
20	59454	88.195731314399	3
20	59490	88.196207314399	1
20	59765	88.198591025931	3
20	59792	88.199067025931	1
20	60061	89.195731316034	3
20	60097	89.196207316034	1
20	60368	89.198591002708	3
20	60395	89.199067002708	1
20	60670	90.195731317802	3
20	60706	90.196207317802	1
20	60975	90.198590978232	3
20	61003	90.199066978232	1
20	61275	91.195731317611	3
20	61311	91.196207317611	1
20	61583	91.198590954703	3
20	61611	91.199066954703	1
20	61879	92.195731316077	3
20	61915	92.196207316077	1
20	62183	92.198590932077	3
20	62211	92.199066932077	1
20	62480	93.195731314677	3
20	62516	93.196207314677	1
20	62784	93.198590910471	3
20	62812	93.199066910471	1
20	63081	94.195731313409	3
20	63117	94.196207313409	1
20	63391	94.198590889888	3
20	63419	94.199066889888	1
20	63692	95.195731312275	3
20	63728	95.196207312275	1
20	63998	95.198590870408	3
20	64027	95.199066870408	1
20	64299	96.195731314396	3
20	64334	96.196207314396	1
20	64603	96.198590849981	3
20	64632	96.199066849981	1
20	64902	97.195731318312	3
20	64937	97.196207318312	1
20	65211	97.198590830174	3
20	65240	97.199066830174	1
20	65577	98.19573132235	3
20	65616	98.19620732235	1
20	65881	98.198590811524	3
20	65911	98.199066811524	1
20	66179	99.19573132651	3
20	66218	99.19620732651	1
20	66483	99.19859079403	3
20	66513	99.19906679403	1
20	66798	100.195731330792	3
20	66837	100.196207330792	1
20	67106	100.198590777821	3
20	67136	100.199066777821	1
20	67410	101.195731338885	3
20	67449	101.196207338885	1
20	67716	101.198590763113	3
20	67746	101.199066763113	1
20	68015	102.195731348681	3
20	68054	102.196207348681	1
20	68321	102.198590749358	3
20	68351	102.199066749358	1
20	68619	103.19573135854	3
20	68658	103.19620735854	1
20	68929	103.198590736512	3
20	68959	103.199066736512	1
20	69228	104.195731368459	3
20	69267	104.196207368459	1
20	69534	104.198590724588	3
20	69564	104.199066724588	1
20	69836	105.195731378438	3
20	69875	105.196207378438	1
20	70142	105.198590713495	3
20	70172	105.199066713495	1
20	70444	106.195731388905	3
20	70483	106.196207388905	1
20	70755	106.19859070668	3
20	70785	106.19906670668	1
20	71053	107.195731399657	3
20	71092	107.196207399657	1
20	71360	107.198590702115	3
20	71390	107.199066702115	1
20	71659	108.195731410455	3
20	71698	108.196207410455	1
20	71966	108.198590698155	3
20	71996	108.199066698155	1
20	72264	109.195731421296	3
20	72303	109.196207421296	1
20	72573	109.198590694804	3
20	72603	109.199066694804	1
20	72879	110.19573143218	3
20	72918	110.19620743218	1
20	73184	110.198590692072	3
20	73214	110.199066692072	1
20	73485	111.195731440558	3
20	73525	111.196207440558	1
20	73789	111.198590689511	3
20	73819	111.199066689511	1
20	74087	112.195731445468	3
20	74127	112.196207445468	1
20	74395	112.198590687619	3
20	74425	112.199066687619	1
20	74693	113.195731450484	3
20	74733	113.196207450484	1
20	74997	113.198590686633	3
20	75027	113.199066686633	1
20	75296	114.195731455605	3
20	75336	114.196207455605	1
20	75600	114.198590686556	3
20	75630	114.199066686556	1
20	75904	115.195731460831	3
20	75944	115.196207460831	1
20	76213	115.198590687358	3
20	76243	115.199066687358	1
20	76514	116.195731465306	3
20	76553	116.196207465306	1
20	76818	116.198590689547	3
20	76848	116.199066689547	1
20	77116	117.195731468986	3
20	77155	117.196207468986	1
20	77421	117.198590692679	3
20	77451	117.199066692679	1
20	77719	118.195731472779	3
20	77757	118.196207472779	1
20	78028	118.198590696421	3
20	78057	118.199066696421	1
20	78326	119.195731476684	3
20	78364	119.196207476684	1
20	78630	119.198590700766	3
20	78659	119.199066700766	1
20	78934	120.1957314807	3
20	78972	120.1962074807	1
20	79238	120.198590705765	3
20	79266	120.199066705765	1
20	79540	121.195731483122	3
20	79578	121.196207483122	1
20	79847	121.198590711595	3
20	79874	121.199066711595	1
20	80144	122.195731484717	3
20	80182	122.196207484717	1
20	80454	122.198590718115	3
20	80479	122.199066718115	1
20	80748	123.195731486429	3
[...]
314	33468	48.196207274937	107
314	33517	48.196683833151	107
314	33724	48.198590386278	107
314	33775	48.199066774659	107
314	34078	49.196207271303	107
314	34126	49.196683816915	107
314	34333	49.198590379358	107
314	34384	49.199066757366	107
314	34694	50.196207270212	107
314	34742	50.196683799483	107
314	34952	50.198590371076	107
314	35003	50.19906674091	107
314	35309	51.196207270942	107
314	35356	51.196683780728	107
314	35563	51.198590361304	107
314	35616	51.199066724825	107
314	35920	52.196207271674	107
314	35966	52.19668376203	107
314	36173	52.198590351938	107
314	36226	52.199066709164	107
314	36529	53.196207272443	107
314	36575	53.196683743423	107
314	36786	53.198590343026	107
314	36839	53.199066693973	107
314	37144	54.196207273248	107
314	37191	54.19668372491	107
314	37400	54.19859033457	107
314	37453	54.199066679253	107
314	37760	55.19620727403	107
314	37806	55.196683706521	107
314	38014	55.198590326581	107
314	38067	55.199066664939	107
314	38375	56.196207274508	107
314	38421	56.19668369006	107
314	38631	56.198590321348	107
314	38684	56.199066650657	107
314	38989	57.196207275024	107
314	39036	57.196683674099	107
314	39244	57.198590316953	107
314	39297	57.19906663664	107
314	39602	58.196207275577	107
314	39648	58.196683658219	107
314	39856	58.198590312858	107
314	39909	58.199066622886	107
314	40211	59.196207276166	107
314	40254	59.19668364242	107
314	40468	59.198590309067	107
314	40520	59.199066609397	107
314	40830	60.196207277275	107
314	40873	60.196683626852	107
314	41086	60.198590305854	107
314	41138	60.199066597334	107
314	41447	61.196207282065	107
314	41489	61.196683615113	107
314	41701	61.19859030508	107
314	41754	61.199066594818	107
314	42059	62.196207286932	107
314	42101	62.196683604103	107
314	42315	62.198590304893	107
314	42368	62.199066592485	107
314	42673	63.196207291874	107
314	42713	63.196683593386	107
314	42924	63.198590305095	107
314	42977	63.199066590383	107
314	43282	64.19620729689	107
314	43322	64.196683582964	107
314	43532	64.198590305695	107
314	43585	64.199066588522	107
314	43897	65.196207302026	107
314	43937	65.196683572886	107
314	44150	65.198590306726	107
314	44203	65.199066586669	107
314	44511	66.196207314036	107
314	44551	66.196683566989	107
314	44761	66.19859031377	107
314	44813	66.199066588766	107
314	45121	67.196207326092	107
314	45158	67.196683561415	107
314	45366	67.198590321377	107
314	45420	67.199066591271	107
314	45727	68.196207338192	107
314	45764	68.196683556216	107
314	45975	68.198590329568	107
314	46029	68.199066594192	107
314	46336	69.196207350335	107
314	46373	69.1966835514	107
314	46581	69.198590338348	107
314	46635	69.199066597548	107
314	46948	70.196207362725	107
314	46985	70.196683547276	107
314	47194	70.198590347986	107
314	47247	70.199066601536	107
314	47556	71.196207375167	107
314	47595	71.196683543803	107
314	47807	71.198590357983	107
314	47858	71.199066617477	107
314	48166	72.196207387634	107
314	48205	72.196683541013	107
314	48414	72.198590368961	107
314	48465	72.199066635005	107
314	48771	73.196207400168	107
314	48810	73.196683538977	107
314	49021	73.198590380985	107
314	49072	73.199066654017	107
314	49379	74.196207412769	107
314	49420	74.196683537726	107
314	49630	74.198590394084	107
314	49679	74.199066674574	107
314	49991	75.19620742538	107
314	50032	75.196683537282	107
314	50244	75.19859040834	107
314	50292	75.199066696866	107
314	50601	76.196207436267	107
314	50642	76.196683538243	107
314	50854	76.198590424729	107
314	50902	76.199066721775	107
314	51208	77.196207447215	107
314	51250	77.196683539857	107
314	51462	77.198590442212	107
314	51510	77.199066747814	107
314	51818	78.196207458231	107
314	51860	78.196683542091	107
314	53814	79.535209811634	51
314	53925	79.53637184919	71
314	54017	79.537325150628	107
314	54318	79.540185128332	107
314	54577	80.196207480475	107
314	54876	80.199067436678	107
314	98478	149.523771859799	51
314	98701	149.527983205261	51
314	98750	149.528315579486	71
314	98800	149.528647955518	71
314	98955	149.530176471394	71
314	99026	149.530509083037	71
314	99122	149.53112969468	107
314	99210	149.531606068939	107
314	99312	149.532082680585	107
314	99608	149.533512908347	107
314	99699	149.533989286203	107
314	99775	149.534466103022	107
314	100039	150.196207191678	107
314	100084	150.196683573193	107
314	100288	150.198590403424	107
314	100335	150.19906678383	107
314	100645	151.196207196661	107
314	100695	151.196683587622	107
314	100896	151.198590403953	107
314	100941	151.199066786273	107
314	101330	152.196207202242	107
314	101380	152.196683602152	107
314	101581	152.198590404733	107
314	101626	152.199066788351	107
314	101934	153.196207208018	107
314	101984	153.196683616877	107
314	103914	154.53570872224	71
314	104111	154.537167281338	107
314	104407	154.540027687578	107
314	104656	155.196207220692	107
314	104949	155.199067616241	107
314	105259	156.196207223644	107
314	105554	156.199067615334	107
314	105856	157.196207223867	107
314	106151	157.199067615386	107
314	106516	158.196207224115	107
314	106811	158.199067616146	107
314	107113	159.196207224389	107
314	107408	159.199067617623	107
314	107729	160.196207226532	107
314	108028	160.199067621648	107
314	108334	161.196207227021	107
314	108629	161.199067620911	107
314	108932	162.196207225069	107
314	109227	162.199067620958	107
314	109530	163.196207211821	107
314	109829	163.199067610357	107
314	110132	164.196207206891	107
314	110428	164.199067608741	107
314	110736	165.196207199646	107
314	111031	165.199067605315	107
314	111334	166.196207189241	107
314	111633	166.199067604961	107
314	111959	167.196207178177	107
314	112254	167.199067607851	107
314	112556	168.196207167357	107
314	116445	170.642545171924	51
314	117421	170.743234057447	71
314	117479	170.745008829771	71
314	117598	170.74596188293	107
314	117688	170.746438344377	107
314	117793	170.746915048304	107
314	119482	170.76456321193	71
314	119532	170.76503967326	107
314	119613	170.765516063544	107
314	119679	170.765992590004	107
314	119958	171.196207146468	107
314	120003	171.196683605427	107
314	120305	171.199543117907	107
314	120355	171.200019510528	107
314	120954	172.196207143963	107
314	120999	172.196683598531	107
314	121301	172.199543109265	107
314	121351	172.200019506634	107
314	121925	173.196207141722	107
314	121970	173.196683591971	107
314	122272	173.199543101154	107
314	122322	173.200019503287	107
314	122703	174.19620713974	107
314	122748	174.196683585747	107
314	123051	174.199543093572	107
314	123101	174.200019500479	107
314	123415	175.196207138967	107
314	123460	175.196683581287	107
314	123762	175.199543088789	107
314	123812	175.2000195	107
314	124132	176.196207140389	107
314	124177	176.196683578203	107
314	124491	176.19954308937	107
314	124540	176.200019506096	107
314	124851	177.196207142247	107
314	124896	177.196683573179	107
314	125199	177.199543091367	107
314	125248	177.2000195152	107
314	125553	178.196207144239	107
314	125598	178.196683568403	107
314	125903	178.199543093892	107
314	125952	178.200019524722	107
314	126259	179.196207146361	107
314	126304	179.196683563874	107
314	126610	179.199543096945	107
314	126659	179.200019534657	107
314	126970	180.19620714866	107
314	127015	180.196683561009	107
314	127317	180.199543103394	107
314	127366	180.200019546492	107
314	127675	181.196207149385	107
314	127719	181.196683561056	107
314	128023	181.19954310379	107
314	128072	181.20001954586	107
314	128379	182.196207149877	107
314	128428	182.196683562436	107
314	128730	182.199543104509	107
314	128777	182.200019544066	107
314	129082	183.196207150449	107
314	129131	183.196683564159	107
314	129431	183.199543105778	107
314	129478	183.200019542743	107
314	129785	184.196207151104	107
314	129834	184.196683566116	107
314	130136	184.199543107651	107
314	130183	184.200019542018	107
314	130495	185.196207151474	107
314	130545	185.196683568301	107
314	130847	185.19954311047	107
314	130894	185.200019541871	107
314	131202	186.196207150848	107
314	131251	186.196683570843	107
314	131552	186.199543117179	107
314	131599	186.200019543802	107
314	131904	187.196207150285	107
314	131953	187.196683571524	107
314	132255	187.1995431251	107
314	132302	187.20001954813	107
314	132617	188.196207149804	107
314	132666	188.196683571981	107
314	132966	188.199543133591	107
314	133013	188.200019553271	107
314	133392	189.196207149405	107
314	133443	189.196683572604	107
314	133743	189.199543142526	107
314	133789	189.20001955886	107
314	134102	190.196207148698	107
314	134153	190.196683573227	107
314	134453	190.199543148925	107
314	134499	190.200019561685	107
314	134820	191.196207147163	107
314	134871	191.196683572383	107
314	135181	191.199543153629	107
314	135227	191.200019564988	107
314	135533	192.196207138732	107
314	135582	192.196683552628	107
314	135881	192.199543140822	107
314	135929	192.20001956352	107
314	136235	193.196207134487	107
314	136284	193.196683542692	107
314	136585	193.199543138255	107
314	136633	193.200019566648	107
314	136943	194.196207130417	107
314	136993	194.196683532907	107
314	137293	194.199543136186	107
314	137341	194.2000195703	107
314	137650	195.196207125981	107
314	137699	195.196683522717	107
314	138000	195.199543131022	107
314	138048	195.20001957089	107
314	138357	196.196207120184	107
314	138406	196.196683506713	107
314	138707	196.199543119846	107
314	138755	196.200019567539	107
314	139062	197.196207115093	107
314	139112	197.196683489724	107
314	139414	197.199543108253	107
314	139462	197.200019565026	107
314	139768	198.196207110097	107
314	139817	198.196683472825	107
314	140117	198.199543096966	107
314	140165	198.200019562989	107
314	140470	199.196207105199	107
314	140519	199.196683456097	107
314	140820	199.199543085981	107
314	140868	199.200019561325	107
314	141181	200.196207100779	107
314	141230	200.196683439754	107
314	141532	200.199543078614	107
314	141580	200.200019563527	107
314	141889	201.196207098815	107
314	141938	201.196683424789	107
314	142238	201.199543076446	107
314	142286	201.200019571975	107
314	142593	202.196207097015	107
314	142637	202.19668340907	107
314	142941	202.199543076198	107
314	142991	202.200019586595	107
314	143298	203.196207095333	107
314	143342	203.196683393463	107
314	143648	203.199543076366	107
314	143698	203.200019602688	107
314	144007	204.196207093766	107
314	144051	204.196683378187	107
314	146375	205.535796715436	71
314	146475	205.536750192647	107
314	146773	205.539609784499	107
314	147023	206.196207336993	107
314	147317	206.199066941734	107
314	147625	207.196207324151	107
314	147919	207.19906694804	107
314	148227	208.196207311573	107
314	148520	208.19906695459	107
314	148909	209.196207299162	107
314	149203	209.199066961454	107
314	149514	210.196207286486	107
314	149808	210.199066968193	107
314	150129	211.196207272951	107
314	150427	211.199066969927	107
314	150735	212.196207260882	107
314	151029	212.199066968742	107
314	151337	213.196207249169	107
314	151632	213.199066967987	107
314	151942	214.196207237615	107
314	152238	214.199066967843	107
314	152549	215.196207225992	107
314	152844	215.19906696808	107
314	153154	216.196207214161	107
314	153448	216.19906696979	107
314	153758	217.196207203264	107
314	154054	217.199066972109	107
314	154361	218.196207192613	107
314	154658	218.199066975095	107
314	154966	219.196207182035	107
314	155262	219.199066978865	107
314	155575	220.196207172467	107
314	155876	220.19906698436	107
314	156187	221.196207164046	107
314	156485	221.199066994463	107
314	156792	222.196207154889	107
314	157091	222.199067008517	107
314	157400	223.196207145511	107
314	157702	223.199067023498	107
314	158089	224.196207136141	107
314	158389	224.19906703926	107
314	158698	225.196207125966	107
314	158999	225.199067054977	107
314	159318	226.196207115125	107
314	159623	226.199067072314	107
314	159929	227.19620710683	107
314	160231	227.199067090422	107
314	160538	228.196207099198	107
314	160841	228.19906710888	107
314	161150	229.196207091582	107
314	161454	229.199067128084	107
314	161766	230.196207084306	107
314	162068	230.19906714835	107
314	162379	231.196207077453	107
314	162681	231.199067170066	107
314	162991	232.196207070968	107
314	163294	232.199067193037	107
314	163601	233.196207064822	107
314	163902	233.199067216842	107
314	164212	234.196207058812	107
314	164515	234.199067241606	107
314	164825	235.196207052265	107
314	165127	235.199067266632	107
314	165434	236.196207045147	107
314	165737	236.199067287375	107
314	166044	237.196207040495	107
314	166345	237.199067300616	107
314	166654	238.196207037304	107
314	166955	238.199067313231	107
314	167263	239.196207034177	107
314	167338	239.196684116782	107
314	167537	239.198590965174	107
314	167569	239.199067326757	107
314	167880	240.196207031587	107
314	167955	240.196684109508	107
314	168155	240.198590974227	107
314	168187	240.199067341659	107
314	168496	241.196207029785	107
314	168565	241.196684102902	107
314	168767	241.198590980943	107
314	168801	241.199067352629	107
314	169108	242.196207030273	107
314	169177	242.196684090418	107
314	169381	242.198590980855	107
314	169415	242.199067350636	107
314	169721	243.196207031735	107
314	169791	243.196684078286	107
314	169994	243.198590981249	107
314	170027	243.19906734772	107
314	170336	244.196207033431	107
314	170402	244.196684066463	107
314	170606	244.198590982082	107
314	170641	244.199067345473	107
314	170955	245.196207035266	107
314	171021	245.196684054796	107
314	171225	245.198590983195	107
314	171260	245.199067343804	107
314	171570	246.196207037162	107
314	171637	246.196684042631	107
314	174742	248.00504678559	51
314	174851	248.006418237119	71
314	174901	248.008588475335	71
314	175000	248.009541580801	107
314	175062	248.010018249081	107
314	175826	248.11301223107	107
314	175869	248.113488660576	107
314	177673	248.531822328919	51
314	177729	248.532155048887	71
314	177850	248.535738190415	51
314	177896	248.536070336411	71
314	177948	248.53654716951	107
314	177989	248.537023315504	107
314	178049	248.53750003556	107
314	178250	248.539406790089	107
314	178300	248.539883300608	107
314	178510	249.195730838542	107
314	178549	249.196206985243	107
314	178610	249.196683716971	107
314	178808	249.198590475497	107
314	178853	249.199066975754	107
314	179126	250.195730832281	107
314	179165	250.196206980859	107
314	179226	250.196683731081	107
314	179425	250.198590494516	107
314	179470	250.199066978384	107
314	179770	251.195730826733	107
314	179809	251.196206976343	107
314	179872	251.196683747982	107
314	180071	251.198590513682	107
314	180114	251.199066981588	107
314	180471	252.195730821203	107
314	180510	252.196206969974	107
314	180575	252.196683765191	107
314	180777	252.198590533706	107
314	180815	252.199066986624	107
314	181083	253.195730815691	107
314	181122	253.196206963763	107
314	181187	253.19668378267	107
314	181390	253.198590554567	107
314	181428	253.199066992533	107
314	181710	254.195730810197	107
314	181749	254.196206957714	107
314	181814	254.196683800407	107
314	183923	255.528515980923	51
314	184480	255.536318153179	107
314	185045	256.196684400071	107
314	185661	257.19668440141	107
314	186279	258.196684402749	107
314	186986	259.196684402914	107
314	187602	260.196684402006	107
314	188227	261.196684405568	107
314	188846	262.196684409143	107
314	189465	263.196684412733	107
314	194067	266.647144085026	51
314	194486	266.649217277068	107
314	194551	266.649693446204	107
314	194645	266.650170241867	107
314	195869	266.756968250545	107
314	195941	266.757445045495	107
314	197915	267.535815469055	71
314	197966	267.536292110858	107
314	198007	267.536768281879	107
314	198309	267.53962870089	107
314	198769	268.195730736534	107
314	198810	268.196206909045	107
314	199112	268.199067311233	107
314	199592	269.195730734793	107
314	199633	269.196206909711	107
314	199935	269.19906729175	107
314	200226	270.19573073314	107
314	200267	270.196206909739	107
314	200624	270.199095939446	51
314	200668	270.199572116036	107
314	201017	271.195730731748	107
314	201058	271.196206905256	107
314	201357	271.199067275591	107
314	201627	272.195730730416	107
314	201668	272.196206900905	107
314	201966	272.199067281204	107
314	202239	273.195730729143	107
314	202280	273.196206896687	107
314	202580	273.199067287393	107
314	202848	274.195730727929	107
314	202889	274.196206892605	107
314	203188	274.199067292884	107
314	203453	275.195730726201	107
314	203494	275.196206888072	107
314	203791	275.199067296669	107
314	204057	276.19573072205	107
314	204098	276.196206881245	107
315	53594	79.530630922253	28
315	103430	154.526414639232	28
315	115074	170.006551106569	28
316	53727	79.534704180579	28
316	116332	170.642039819905	28
317	54313	79.540184965817	1
317	99703	149.533989329264	2
317	104411	154.540027693903	3
317	119609	170.765515978052	4
317	146779	205.539609925141	5
317	175875	248.113488740381	6
317	184733	255.538701967019	7
317	195866	266.756968157037	8
318	81925	125.195254009217	28
319	98225	149.521796364174	28
319	174686	248.004794193452	28
320	98393	149.523266690118	28
320	177579	248.531317223401	28
321	98427	149.523519293113	28
321	116401	170.642292524105	28
322	98606	149.527478260703	28
322	146237	205.534958640221	28
323	114818	170.005297714541	28
324	115043	170.006298688706	28
324	194940	266.655285936956	28
324	198361	267.655285936956	28
325	118069	170.75255093783	28
325	120482	171.75255093783	28
326	118078	170.752551011734	28
326	120485	171.752551011734	28
326	121486	172.752551011734	28
326	174646	248.004541627448	28
326	195429	266.659164523247	28
327	118105	170.752551219384	28
327	120488	171.752551219384	28
327	121489	172.752551219384	28
328	118115	170.752551231103	28
328	120493	171.752551231103	28
328	121493	172.752551231103	28
329	122485	173.752551219384	48
330	122487	173.752551231103	48
331	167335	239.196684113943	107
331	167535	239.198590962321	107
331	167948	240.196684098742	107
331	168151	240.198590963446	107
331	168563	241.196684085292	107
331	168765	241.198590963326	107
331	169175	242.19668406938	107
331	169379	242.198590959811	107
331	169787	243.196684053743	107
331	169989	243.198590956699	107
331	170400	244.196684038335	107
331	170603	244.198590953947	107
331	171019	245.196684023129	107
331	171222	245.198590951521	107
331	171635	246.196684008396	107
331	174746	248.005046824401	51
331	174855	248.006418275912	71
331	175066	248.010018287827	107
331	175831	248.113012268416	107
331	177736	248.532155080525	71
331	178053	248.537500067128	107
331	178257	248.539406821631	107
331	178614	249.196683739542	107
331	178815	249.198590498041	107
331	179228	250.196683740318	107
331	179427	250.198590503731	107
331	179870	251.196683745809	107
331	180069	251.198590511487	107
331	180571	252.196683751758	107
331	180770	252.198590520251	107
331	181183	253.196683758131	107
331	181383	253.198590530007	107
331	181810	254.196683764926	107
331	183919	255.528515906138	51
331	184091	255.52943746653	51
331	184145	255.529770293609	71
331	184320	255.534887665882	71
331	184422	255.535841251281	107
331	184476	255.536318078436	107
331	184673	255.53822509961	107
331	184727	255.538701869723	107
331	184987	256.196207494125	107
331	185043	256.196684329019	107
331	185242	256.198591337737	107
331	185292	256.199068105405	107
331	185601	257.196207489399	107
331	185657	257.196684335971	107
331	185855	257.198591320342	107
331	185905	257.199068084353	107
331	186214	258.196207484752	107
331	186270	258.19668434295	107
331	186468	258.198591303177	107
331	186518	258.199068063583	107
331	186921	259.196207480185	107
331	186977	259.196684349149	107
331	187176	259.198591286407	107
331	187226	259.199068042891	107
331	187537	260.196207476844	107
331	187593	260.196684355232	107
331	187792	260.198591271833	107
331	187842	260.199068024524	107
331	188162	261.196207475817	107
331	188223	261.196684365126	107
331	188421	261.19859126358	107
331	188470	261.199068014963	107
331	188781	262.196207474846	107
331	188842	262.196684375032	107
331	189038	262.198591265201	107
331	189087	262.199068015324	107
331	189398	263.196207473932	107
331	189461	263.196684384953	107
331	189658	263.198591266921	107
331	189705	263.19906801583	107
331	190015	264.196207473073	107
332	175466	248.012897036414	28
333	177626	248.531569838703	28
334	177758	248.535232867146	28
335	184042	255.529184771167	28
336	184176	255.534049385103	28

